version 2
run FastSMR-7-20181114-02:23:58-9196
attr configname FastSMR
attr datetime 20181114-02:23:58
attr experiment FastSMR
attr inifile omnetpp.ini
attr iterationvars "$GCCycleForLatency=8000, $GC=true"
attr iterationvarsf GCCycleForLatency=8000,GC=true-
attr measurement "$GCCycleForLatency=8000, $GC=true"
attr network abstract.FastSMRModel
attr processid 9196
attr repetition 0
attr replication #0
attr resultdir results
attr runnumber 7
attr seedset 7
itervar GC true
itervar GCCycleForLatency 8000
param FastSMRModel.client_num 10
param FastSMRModel.logical_computer "\"client[0]\""
param **.globalParameters.max_distance 20000000m
param **.globalParameters.fix_latency 100ms
param **.globalParameters.latency_gen_mode 0
param **.globalStatistics.cool_down 10s
param **.underlayConfigurator.lcType "\"abstract.LogicComputer\""
param **.underlayConfigurator.lcName "\"logicComputer\""
param **.underlayConfigurator.nodeType "\"hosts.Node\""
param **.underlayConfigurator.nodeName "\"node\""
param **.underlayConfigurator.clientType "\"hosts.Client\""
param **.underlayConfigurator.clientName "\"client\""
param **.client[*].ctrl.initJoinTime 3000ms
param **.client[*].ctrl.loadCycle 500ms
param **.client[*].ctrl.discoveryCycle 1000ms
param **.client[*].ctrl.deviate false
param **.node[*].IPInterface "\"IPAddress\""
param **.node[*].HBcycle 1000ms
param **.node[*].ctrl.roundCycle 200ms
param **.node[*].ctrl.cycleStart 4000ms
param **.node[*].ctrl.GCCycle 8000ms
param **.node[*].ctrl.GC true
param **.rendezvous.ctrl.cycle 1000ms
param **.rendezvous.ctrl.starttime 5000ms
param **.rendezvous.replicaNumPolicyModule "\"replication\""
param **.rendezvous.replication.threshold 3
param **.rendezvous.replication.max_replica 5
param **.clock.err_mean 74ms
param **.clock.err_std 175ms
param **.pktLossRate 0.01
param **.Copt 200000000mps
param **.BW 1.04858e6bps
param **.MTU 12144b
param **.jitter_mu 1
param **.jitter_sigma 0.5
param **.Dmin 50ms
param **.jitter 50ms
param **.churnGeneratorModule "\"churnGenerator\""
param **.churnGenerator.stable_fraction 0.2
param **.churnGenerator.stable_mean 9000000ms
param **.churnGenerator.sessionLenShape 0.38
param **.churnGenerator.sessionLenScale 42.4
param **.churnGenerator.sessionLenMin 10s
param **.churnGenerator.sessionLength 30min
param **.churnGenerator.scan_cycle 100ms
param **.churnGenerator.life_span_min 10s
param **.churnGenerator.life_span_max 200s
param **.coordinator.locXMax 750
param **.coordinator.locYMax 550
param **.coordinator.locXMin 200
param **.coordinator.locYMin 50
param **.coordinator.LCXMax 1050
param **.coordinator.LCYMax 550
param **.coordinator.LCXMin 850
param **.coordinator.LCYMin 50
param **.coordinator.percept_radius 1000

vector 0 FastSMRModel.client[9] IndividualInteractionLatency:vector ETV
attr source latency
attr title "Individual Interaction Latency, vector"
vector 1 FastSMRModel.logicComputer[0].node[0] QdLengthVector:vector ETV
attr source QdLength
attr title "Qd Length, vector"
vector 2 FastSMRModel.logicComputer[0].node[1] QdLengthVector:vector ETV
attr source QdLength
attr title "Qd Length, vector"
vector 3 FastSMRModel.logicComputer[0].node[2] QdLengthVector:vector ETV
attr source QdLength
attr title "Qd Length, vector"
vector 4 FastSMRModel.logicComputer[0].node[3] QdLengthVector:vector ETV
attr source QdLength
attr title "Qd Length, vector"
vector 5 FastSMRModel.logicComputer[0].node[4] QdLengthVector:vector ETV
attr source QdLength
attr title "Qd Length, vector"
vector 6 FastSMRModel.client[2] IndividualInteractionLatency:vector ETV
attr source latency
attr title "Individual Interaction Latency, vector"
vector 7 FastSMRModel.client[4] IndividualInteractionLatency:vector ETV
attr source latency
attr title "Individual Interaction Latency, vector"
vector 8 FastSMRModel.client[7] IndividualInteractionLatency:vector ETV
attr source latency
attr title "Individual Interaction Latency, vector"
vector 9 FastSMRModel.client[5] IndividualInteractionLatency:vector ETV
attr source latency
attr title "Individual Interaction Latency, vector"
vector 10 FastSMRModel.client[6] IndividualInteractionLatency:vector ETV
attr source latency
attr title "Individual Interaction Latency, vector"
vector 11 FastSMRModel.client[0] IndividualInteractionLatency:vector ETV
attr source latency
attr title "Individual Interaction Latency, vector"
vector 12 FastSMRModel.client[1] IndividualInteractionLatency:vector ETV
attr source latency
attr title "Individual Interaction Latency, vector"
vector 13 FastSMRModel.client[3] IndividualInteractionLatency:vector ETV
attr source latency
attr title "Individual Interaction Latency, vector"
vector 14 FastSMRModel.client[8] IndividualInteractionLatency:vector ETV
attr source latency
attr title "Individual Interaction Latency, vector"
4	5593	10.1	30
4	7500	10.3	40
4	9289	10.5	50
4	11068	10.7	60
4	12845	10.9	70
4	14529	11.1	80
4	16273	11.3	90
4	18015	11.5	100
4	19481	11.7	110
4	21245	11.9	120
4	22819	12.1	130
4	24541	12.3	140
4	26105	12.5	150
4	27837	12.7	160
4	29212	12.9	170
4	31933	13.1	180
4	34625	13.3	190
4	36408	13.5	190
4	36423	13.5	200
4	37957	13.7	210
4	39965	13.9	30
4	41900	14.1	40
4	43106	14.3	50
4	43809	14.5	60
4	46533	14.7	70
4	48537	14.9	80
4	50724	15.1	90
4	52778	15.3	100
4	54566	15.5	110
4	56353	15.7	120
4	58130	15.9	130
4	59957	16.1	140
4	61748	16.3	150
4	63539	16.5	160
4	68849	17.127	170
4	68849	17.127	180
4	68849	17.127	190
4	70365	17.3	200
4	71968	17.5	210
4	74225	17.7	220
4	76154	17.9	230
4	77985	18.1	240
4	79627	18.3	250
4	81526	18.5	260
4	83356	18.7	270
4	85127	18.9	280
4	86390	19.1	290
4	87397	19.3	300
4	89986	19.5	310
4	96720	20.34	320
4	96720	20.34	330
4	100951	20.758	340
4	100951	20.758	350
4	100951	20.758	360
4	100951	20.758	370
4	102735	20.9	380
4	104483	21.1	390
4	106740	21.3	400
4	107778	21.5	400
4	107793	21.5	410
4	108693	21.7	420
4	111572	21.9	40
4	114197	22.1	50
4	115696	22.3	60
4	121245	22.921	70
4	121245	22.921	80
4	121245	22.921	90
4	122940	23.1	100
4	125003	23.3	110
4	126794	23.5	120
4	128567	23.7	130
4	130109	23.9	140
4	131621	24.1	150
4	133870	24.3	160
4	135813	24.5	170
4	137592	24.7	180
4	142726	25.32	190
4	142726	25.32	200
4	142726	25.32	210
4	144410	25.5	220
4	150068	26.118	230
4	150068	26.118	240
4	150068	26.118	250
4	151939	26.3	260
4	153835	26.5	270
4	155361	26.7	280
4	161089	27.321	290
4	161089	27.321	300
4	164854	27.743	310
4	164854	27.743	320
4	164854	27.743	330
4	166320	27.9	340
4	168353	28.1	350
4	170138	28.3	360
4	171921	28.5	370
4	173698	28.7	380
4	175493	28.9	390
4	177127	29.1	400
4	179117	29.3	410
4	180894	29.5	410
4	180909	29.5	420
4	182750	29.7	430
4	184396	29.9	30
4	186367	30.1	40
4	191796	30.73	50
4	195270	31.149	60
4	195270	31.149	70
4	195270	31.149	80
4	195270	31.149	90
4	196978	31.3	100
4	199009	31.5	110
4	200808	31.7	120
4	202406	31.9	130
4	204121	32.1	140
4	205873	32.3	150
4	207850	32.5	160
4	209839	32.7	170
4	211608	32.9	180
4	213453	33.1	190
4	215222	33.3	200
4	216451	33.5	210
4	217595	33.7	220
4	218597	33.9	230
4	221667	34.1	240
4	224252	34.3	250
4	226041	34.5	260
4	227832	34.7	270
4	233278	35.329	280
4	233278	35.329	290
4	237070	35.752	300
4	237070	35.752	310
4	237070	35.752	320
4	238512	35.9	330
4	240230	36.1	340
4	242228	36.3	350
4	243809	36.5	360
4	245421	36.7	370
4	247613	36.9	380
4	249562	37.1	390
4	251150	37.3	400
4	252942	37.5	400
4	252957	37.5	410
4	255004	37.7	420
4	256646	37.9	30
4	258618	38.1	40
4	260176	38.3	50
4	261635	38.5	60
4	263109	38.7	70
4	265265	38.9	80
4	267081	39.1	90
4	268711	39.3	100
4	270063	39.5	110
4	272000	39.7	120
4	274883	39.9	130
4	276734	40.1	140
4	278519	40.3	150
4	280300	40.5	160
4	285607	41.124	170
4	285607	41.124	180
4	285607	41.124	190
4	287288	41.3	200
4	289291	41.5	210
4	291092	41.7	220
4	292874	41.9	230
4	294132	42.1	240
4	295276	42.3	250
4	297877	42.5	260
4	300100	42.7	270
4	307149	43.539	280
4	307149	43.539	290
4	307149	43.539	300
4	307149	43.539	310
4	308910	43.7	320
4	310770	43.9	330
4	312555	44.1	340
4	314553	44.3	350
4	316089	44.5	360
4	317244	44.7	370
4	319197	44.9	380
4	320639	45.1	390
4	322854	45.3	400
4	325223	45.5	400
4	325238	45.5	410
4	327012	45.7	420
4	332623	46.321	30
4	332623	46.321	40
4	332623	46.321	50
4	334483	46.5	60
4	336077	46.7	70
4	337553	46.9	80
4	339864	47.1	90
4	341791	47.3	100
4	343566	47.5	110
4	345363	47.7	120
4	347146	47.9	130
4	348981	48.1	140
4	350756	48.3	150
4	352545	48.5	160
4	354071	48.7	170
4	355553	48.9	180
4	357848	49.1	190
4	359774	49.3	200
4	361564	49.5	210
4	363343	49.7	220
4	364871	49.9	230
4	366389	50.1	240
4	368654	50.3	250
4	370569	50.5	260
4	372352	50.7	270
4	373994	50.9	280
4	375822	51.1	290
4	377740	51.3	300
4	379560	51.5	310
4	381365	51.7	320
4	382989	51.9	330
4	384630	52.1	340
4	390250	52.719	350
4	390250	52.719	360
4	390250	52.719	370
4	391941	52.9	380
4	393467	53.1	390
4	395515	53.3	400
4	397612	53.5	400
4	397627	53.5	410
4	399470	53.7	420
4	401267	53.9	30
4	403090	54.1	40
4	404883	54.3	50
4	406658	54.5	60
4	408439	54.7	70
4	410234	54.9	80
4	412051	55.1	90
4	413653	55.3	100
4	415653	55.5	110
4	417420	55.7	120
4	418904	55.9	130
4	425985	56.741	140
4	425985	56.741	150
4	429991	57.161	160
4	429991	57.161	170
4	429991	57.161	180
4	429991	57.161	190
4	431634	57.3	200
4	433680	57.5	210
4	435459	57.7	220
4	436939	57.9	230
4	438832	58.1	240
4	440326	58.3	250
4	441508	58.5	260
4	444037	58.7	270
4	445786	58.9	280
4	447882	59.1	290
4	449896	59.3	300
4	451522	59.5	310
4	456603	60.119	320
4	456603	60.119	330
4	456603	60.119	340
4	458507	60.3	350
4	460163	60.5	360
4	461628	60.7	370
4	462868	60.9	380
4	464577	61.1	390
4	467728	61.3	400
4	469853	61.5	400
4	469868	61.5	410
4	471731	61.7	420
4	473514	61.9	30
4	475351	62.1	40
4	477122	62.3	50
4	478915	62.5	60
4	480503	62.7	70
4	482177	62.9	80
4	483765	63.1	90
4	489266	63.723	100
4	489266	63.723	110
4	489266	63.723	120
4	490619	63.9	130
4	491583	64.1	140
4	498639	64.724	150
4	498639	64.724	160
4	498639	64.724	170
4	504057	65.323	180
4	504057	65.323	190
4	504057	65.323	200
4	505553	65.5	210
4	507190	65.7	220
4	508477	65.9	230
4	510811	66.1	240
4	513054	66.3	250
4	515170	66.5	260
4	516965	66.7	270
4	521942	67.325	280
4	521942	67.325	290
4	521942	67.325	300
4	523906	67.5	310
4	525769	67.7	320
4	527761	67.9	330
4	529596	68.1	340
4	531112	68.3	350
4	532596	68.5	360
4	534837	68.7	370
4	536463	68.9	380
4	538360	69.1	390
4	540194	69.3	400
4	542213	69.5	400
4	542228	69.5	410
4	544065	69.7	420
4	545858	69.9	30
4	547693	70.1	40
4	549476	70.3	50
4	551000	70.5	60
4	552464	70.7	70
4	554545	70.9	80
4	556708	71.1	90
4	558483	71.3	100
4	559981	71.5	110
4	561824	71.7	120
4	563725	71.9	130
4	565689	72.1	140
4	567518	72.3	150
2	5591	10.1	30
2	7498	10.3	40
2	9287	10.5	50
2	11066	10.7	60
2	12843	10.9	70
2	16042	11.287	80
2	16271	11.3	90
2	18013	11.5	100
2	19479	11.7	110
2	21243	11.9	120
2	22817	12.1	130
2	24539	12.3	140
2	26103	12.5	150
2	28996	12.881	160
2	31627	13.09	170
2	31931	13.1	180
2	34623	13.3	190
2	36406	13.5	190
2	36421	13.5	200
2	37955	13.7	20
2	39963	13.9	30
2	44955	14.582	40
2	44955	14.582	50
2	44955	14.582	60
2	46531	14.7	70
2	48535	14.9	80
2	50722	15.1	90
2	52776	15.3	100
2	54564	15.5	110
2	56351	15.7	120
2	58128	15.9	130
2	59955	16.1	140
2	61746	16.3	150
2	63537	16.5	160
2	66396	16.882	170
2	66596	16.9	180
2	68304	17.1	190
2	70363	17.3	200
2	71966	17.5	210
2	74223	17.7	220
2	76152	17.9	230
2	77983	18.1	240
2	79625	18.3	250
2	81524	18.5	260
2	83354	18.7	270
2	85125	18.9	280
2	86388	19.1	290
2	87395	19.3	300
2	89984	19.5	310
2	92364	19.7	320
2	93568	19.9	330
2	94460	20.1	340
2	96100	20.3	350
2	97694	20.5	360
2	99937	20.7	370
2	102733	20.9	380
2	104481	21.1	390
2	107776	21.5	390
2	109674	21.78	10
2	109674	21.78	20
2	109674	21.78	30
2	111570	21.9	40
2	114195	22.1	50
2	115694	22.3	60
2	117589	22.5	70
2	119238	22.7	80
2	122698	23.084	90
2	122938	23.1	100
2	125001	23.3	110
2	126792	23.5	120
2	128565	23.7	130
2	130107	23.9	140
2	131619	24.1	150
2	133868	24.3	160
2	135811	24.5	170
2	137590	24.7	180
2	139365	24.9	190
2	140884	25.1	200
2	142208	25.3	210
2	144408	25.5	220
2	146495	25.7	230
2	148079	25.9	240
2	149458	26.1	250
2	151937	26.3	260
2	153833	26.5	270
2	155359	26.7	280
2	156835	26.9	290
2	158814	27.1	300
2	160444	27.3	310
2	162512	27.5	320
2	164040	27.7	330
2	166318	27.9	340
2	168351	28.1	350
2	170136	28.3	360
2	171919	28.5	370
2	173696	28.7	380
2	176925	29.087	390
2	177125	29.1	400
2	179115	29.3	410
2	180892	29.5	410
2	180907	29.5	420
2	182748	29.7	20
2	184394	29.9	30
2	186365	30.1	40
2	187850	30.3	50
2	189538	30.5	60
2	191123	30.7	70
2	192890	30.9	80
2	194451	31.1	90
2	196976	31.3	100
2	199007	31.5	110
2	202206	31.892	120
2	202404	31.9	130
2	204119	32.1	140
2	205871	32.3	150
2	207848	32.5	160
2	209837	32.7	170
2	211606	32.9	180
2	213451	33.1	190
2	215220	33.3	200
2	216449	33.5	210
2	217593	33.7	220
2	218595	33.9	230
2	221665	34.1	240
2	224250	34.3	250
2	226039	34.5	260
2	227830	34.7	270
2	229350	34.9	280
2	230552	35.1	290
2	232493	35.3	300
2	234667	35.5	310
2	236249	35.7	320
2	238510	35.9	330
2	240228	36.1	340
2	244574	36.582	350
2	244574	36.582	360
2	245419	36.7	370
2	247611	36.9	380
2	250918	37.281	390
2	252732	37.482	400
2	252940	37.5	400
2	252955	37.5	410
2	255002	37.7	20
2	256644	37.9	30
2	258616	38.1	40
2	260174	38.3	50
2	261633	38.5	60
2	263107	38.7	70
2	265263	38.9	80
2	267079	39.1	90
2	268709	39.3	100
2	270061	39.5	110
2	271998	39.7	120
2	274881	39.9	130
2	276732	40.1	140
2	278517	40.3	150
2	280298	40.5	160
2	282077	40.7	170
2	283551	40.9	180
2	285072	41.1	190
2	287286	41.3	200
2	289289	41.5	210
2	291090	41.7	220
2	296459	42.383	230
2	296459	42.383	240
2	296459	42.383	250
2	297875	42.5	260
2	300098	42.7	270
2	301732	42.9	280
2	303117	43.1	290
2	304312	43.3	300
2	306255	43.5	310
2	308908	43.7	320
2	312327	44.087	330
2	312553	44.1	340
2	314551	44.3	350
2	316087	44.5	360
2	317242	44.7	370
2	319195	44.9	380
2	320637	45.1	390
2	322852	45.3	400
2	325221	45.5	400
2	325236	45.5	410
2	327010	45.7	20
2	328753	45.9	30
2	330559	46.1	40
2	331953	46.3	50
2	334481	46.5	60
2	336075	46.7	70
2	337551	46.9	80
2	339862	47.1	90
2	341789	47.3	100
2	343564	47.5	110
2	345361	47.7	120
2	347144	47.9	130
2	348979	48.1	140
2	350754	48.3	150
2	352543	48.5	160
2	354069	48.7	170
2	355551	48.9	180
2	357846	49.1	190
2	359772	49.3	200
2	361562	49.5	210
2	363341	49.7	220
2	364869	49.9	230
2	366387	50.1	240
2	368652	50.3	250
2	370567	50.5	260
2	372350	50.7	270
2	373992	50.9	280
2	375820	51.1	290
2	377738	51.3	300
2	379558	51.5	310
2	381363	51.7	320
2	382987	51.9	330
2	384628	52.1	340
2	386668	52.3	350
2	388249	52.5	360
2	389718	52.7	370
2	393252	53.081	380
2	395295	53.284	390
2	395513	53.3	400
2	397610	53.5	400
2	397625	53.5	410
2	399468	53.7	20
2	401265	53.9	30
2	403088	54.1	40
2	404881	54.3	50
2	406656	54.5	60
2	408437	54.7	70
2	410232	54.9	80
2	413457	55.287	90
2	413651	55.3	100
2	415651	55.5	110
2	417418	55.7	120
2	418902	55.9	130
2	420930	56.1	140
2	421964	56.3	150
2	422793	56.5	160
2	425000	56.7	170
2	427487	56.9	180
2	429134	57.1	190
2	431632	57.3	200
2	433678	57.5	210
2	435457	57.7	220
2	436937	57.9	230
2	438830	58.1	240
2	440324	58.3	250
2	441506	58.5	260
2	445614	58.884	270
2	445784	58.9	280
2	447880	59.1	290
2	451296	59.481	300
2	451520	59.5	310
2	453510	59.7	320
2	454977	59.9	330
2	456191	60.1	340
2	458505	60.3	350
2	460161	60.5	360
2	461626	60.7	370
2	462866	60.9	380
2	464575	61.1	390
2	467726	61.3	400
2	469851	61.5	400
2	469866	61.5	410
2	471729	61.7	20
2	473512	61.9	30
2	475349	62.1	40
2	477120	62.3	50
2	480297	62.685	60
2	480501	62.7	70
2	483571	63.083	80
2	483763	63.1	90
2	485959	63.3	100
2	487614	63.5	110
2	492876	64.186	120
2	492876	64.186	130
2	492876	64.186	140
2	494450	64.3	150
2	496375	64.5	160
2	498056	64.7	170
2	501653	65.081	180
2	501843	65.1	190
2	503644	65.3	200
2	509465	65.982	210
2	509465	65.982	220
2	509465	65.982	230
2	512868	66.283	240
2	513052	66.3	250
2	515168	66.5	260
2	516963	66.7	270
2	518732	66.9	280
2	520246	67.1	290
2	521448	67.3	300
2	525567	67.684	310
2	525767	67.7	320
2	527759	67.9	330
2	529594	68.1	340
2	531110	68.3	350
2	532594	68.5	360
2	534835	68.7	370
2	536461	68.9	380
2	539973	69.283	390
2	540192	69.3	400
2	542211	69.5	400
2	542226	69.5	410
2	544063	69.7	20
2	545856	69.9	30
2	547691	70.1	40
2	549474	70.3	50
2	550998	70.5	60
2	554263	70.884	70
2	554543	70.9	80
2	556706	71.1	90
2	558481	71.3	100
2	559979	71.5	110
2	561822	71.7	120
2	563723	71.9	130
2	565687	72.1	140
2	567516	72.3	150
2	569306	72.5	160
2	570581	72.7	170
2	571931	72.9	180
2	573111	73.1	190
2	574227	73.3	200
2	575354	73.5	210
2	577359	73.7	220
2	579467	73.9	230
2	580812	74.1	240
2	582407	74.3	250
2	583847	74.5	260
2	585293	74.7	270
2	586731	74.9	280
2	588217	75.1	290
2	591411	75.61	300
2	591411	75.61	310
2	592173	75.7	320
2	594009	75.9	330
2	596484	76.29	340
2	596634	76.3	350
2	598401	76.5	360
2	599839	76.7	370
2	601279	76.9	380
2	602763	77.1	390
2	604209	77.3	400
2	605643	77.5	400
2	605657	77.5	410
2	607133	77.7	20
2	608581	77.9	30
2	610065	78.1	40
2	611509	78.3	50
2	612642	78.5	60
2	614287	78.7	70
2	615835	78.9	80
2	618111	79.285	90
2	618261	79.3	100
2	620117	79.5	110
2	621673	79.7	120
2	623113	79.9	130
2	624446	80.1	140
2	625782	80.3	150
2	628288	80.684	160
2	628476	80.7	170
2	630427	80.9	180
2	632588	81.283	190
2	632819	81.3	200
2	634855	81.5	210
2	636307	81.7	220
2	637735	81.9	230
2	639082	82.1	240
2	640631	82.3	250
2	642117	82.5	260
2	643553	82.7	270
2	644852	82.9	280
2	646448	83.1	290
2	647933	83.3	300
2	649373	83.5	310
2	650811	83.7	320
2	652102	83.9	330
2	653713	84.1	340
2	655183	84.3	350
2	657662	84.682	360
2	657858	84.7	370
2	659372	84.9	380
2	662042	85.281	390
2	662252	85.3	400
2	663883	85.5	400
2	665010	85.686	10
2	665184	85.7	20
2	666575	85.9	30
2	668286	86.1	40
2	669796	86.3	50
2	671234	86.5	60
2	672688	86.7	70
2	674108	86.9	80
2	675041	87.1	90
2	676534	87.3	100
2	678517	87.5	110
2	679956	87.7	120
2	682389	88.082	130
2	682627	88.1	140
2	684385	88.3	150
2	685831	88.5	160
2	686954	88.7	170
2	688349	88.9	180
2	689904	89.1	190
2	691245	89.3	200
2	692812	89.5	210
2	694463	89.7	220
2	695946	89.9	230
2	697570	90.1	240
2	698767	90.3	250
2	699926	90.5	260
2	701826	90.7	270
2	703414	90.9	280
2	704658	91.1	290
2	706259	91.3	300
2	707817	91.5	310
2	709257	91.7	320
2	710707	91.9	330
2	712191	92.1	340
2	713627	92.3	350
2	715059	92.5	360
2	716192	92.7	370
2	717847	92.9	380
2	719439	93.1	390
2	720318	93.3	400
2	721810	93.5	400
2	721824	93.5	410
2	723337	93.7	30
2	725306	93.9	40
2	726652	94.1	50
2	728219	94.3	60
2	729693	94.5	70
2	730986	94.7	80
2	732569	94.9	90
2	734069	95.1	100
2	735513	95.3	110
2	736953	95.5	120
2	738394	95.7	130
2	739825	95.9	140
2	741309	96.1	150
2	742753	96.3	160
2	744197	96.5	170
2	745639	96.7	180
2	747085	96.9	190
2	748561	97.1	200
2	750001	97.3	210
2	751435	97.5	220
2	752889	97.7	230
2	754323	97.9	240
2	755801	98.1	250
2	757245	98.3	260
2	758374	98.5	270
2	759874	98.7	280
2	761578	98.9	290
2	762928	99.1	300
2	764518	99.3	310
2	765967	99.5	320
2	767405	99.7	330
2	768847	99.9	340
2	772075	100.399	350
2	772075	100.399	360
2	772947	100.5	370
2	774677	100.7	380
2	776127	100.9	390
2	777464	101.1	400
2	778777	101.3	410
2	780388	101.5	410
2	780402	101.5	420
2	782024	101.7	20
2	783454	101.9	30
2	784682	102.1	40
2	786313	102.3	50
2	787867	102.5	60
2	789152	102.7	70
2	790718	102.9	80
2	792964	103.283	90
2	793235	103.3	100
2	795138	103.5	110
2	796284	103.7	120
2	797937	103.9	130
2	799537	104.1	140
2	800826	104.3	150
2	803478	104.682	160
2	803678	104.7	170
2	805317	104.9	180
2	806801	105.1	190
2	808246	105.3	200
2	809685	105.5	210
2	811131	105.7	220
2	812410	105.9	230
2	814025	106.1	240
2	815241	106.3	250
2	816850	106.5	260
2	818418	106.7	270
2	819856	106.9	280
2	821338	107.1	290
2	822784	107.3	300
2	824218	107.5	310
2	825658	107.7	320
2	827094	107.9	330
2	829635	108.283	340
2	829827	108.3	350
2	831456	108.5	360
2	832755	108.7	370
2	835463	109.085	380
2	835653	109.1	390
2	837284	109.3	400
2	838732	109.5	400
2	838746	109.5	410
2	840220	109.7	20
2	841664	109.9	30
2	842835	110.1	40
2	844488	110.3	50
2	846979	110.687	60
2	847223	110.7	70
2	848816	110.9	80
2	851464	111.287	90
2	851614	111.3	100
2	853369	111.5	110
2	854811	111.7	120
2	856259	111.9	130
2	857735	112.1	140
2	859038	112.3	150
2	860621	112.5	160
2	862075	112.7	170
2	863201	112.9	180
2	864905	113.1	190
2	866459	113.3	200
2	867897	113.5	210
2	869327	113.7	220
2	870634	113.9	230
2	872231	114.1	240
2	873721	114.3	250
2	875157	114.5	260
2	876587	114.7	270
2	878027	114.9	280
2	879255	115.1	290
2	880904	115.3	300
2	882172	115.5	310
2	883810	115.7	320
2	885342	115.9	330
2	886819	116.1	340
2	888269	116.3	350
2	889568	116.5	360
2	891151	116.7	370
2	893700	117.082	380
2	893900	117.1	390
2	895537	117.3	400
2	896965	117.5	400
2	896979	117.5	410
2	898310	117.7	20
2	899585	117.9	30
2	901041	118.1	40
2	902683	118.3	50
2	904321	118.5	60
2	905749	118.7	70
2	907048	118.9	80
2	908660	119.1	90
2	910139	119.3	100
2	911579	119.5	110
2	913015	119.7	120
2	914459	119.9	130
2	915947	120.1	140
2	917076	120.3	150
2	918717	120.5	160
2	921392	120.898	170
2	921526	120.9	180
2	923215	121.1	190
2	924651	121.3	200
2	926089	121.5	210
2	927523	121.7	220
2	928436	121.9	230
2	929869	122.1	240
2	931843	122.3	250
2	933248	122.5	260
2	934529	122.7	270
2	937406	123.083	280
2	937596	123.1	290
2	939241	123.3	300
2	940679	123.5	310
2	942127	123.7	320
2	943303	123.9	330
2	944644	124.1	340
2	946167	124.3	350
2	947448	124.5	360
2	949247	124.7	370
2	950944	124.9	380
2	952438	125.1	390
2	953866	125.3	400
2	954995	125.5	400
2	955009	125.5	410
2	956696	125.7	30
2	957994	125.9	40
2	960362	126.284	50
2	960546	126.3	60
2	962710	126.5	70
2	964158	126.7	80
2	965582	126.9	90
2	967082	127.1	100
2	968520	127.3	110
2	969954	127.5	120
2	972449	127.882	130
2	972637	127.9	140
2	975379	128.282	150
2	975581	128.3	160
2	977220	128.5	170
2	978654	128.7	180
2	980108	128.9	190
2	981582	129.1	200
1	5590	10.1	30
1	7497	10.3	40
1	9286	10.5	50
1	11065	10.7	60
1	12842	10.9	70
1	14526	11.1	80
1	16270	11.3	90
1	18012	11.5	100
1	19478	11.7	110
1	21242	11.9	120
1	22816	12.1	130
1	24538	12.3	140
1	26102	12.5	150
1	27834	12.7	160
1	29209	12.9	170
1	31930	13.1	180
1	34622	13.3	190
1	36405	13.5	190
1	38637	13.731	10
1	38637	13.731	20
1	39962	13.9	30
1	41897	14.1	40
1	44441	14.53	50
1	44441	14.53	60
1	46530	14.7	70
1	48534	14.9	80
1	50721	15.1	90
1	52775	15.3	100
1	54563	15.5	110
1	56350	15.7	120
1	58127	15.9	130
1	59954	16.1	140
1	61745	16.3	150
1	63536	16.5	160
1	65311	16.7	170
1	66595	16.9	180
1	68303	17.1	190
1	70362	17.3	200
1	71965	17.5	210
1	74222	17.7	220
1	76151	17.9	230
1	77982	18.1	240
1	79624	18.3	250
1	81523	18.5	260
1	83353	18.7	270
1	88797	19.415	280
1	88797	19.415	290
1	88797	19.415	300
1	89983	19.5	310
1	92363	19.7	320
1	94967	20.13	330
1	94967	20.13	340
1	96099	20.3	350
1	97693	20.5	360
1	99936	20.7	370
1	102732	20.9	380
1	104480	21.1	390
1	107775	21.5	390
1	110181	21.803	10
1	110181	21.803	20
1	110181	21.803	30
1	111569	21.9	40
1	114194	22.1	50
1	115693	22.3	60
1	117588	22.5	70
1	119237	22.7	80
1	120710	22.9	90
1	122937	23.1	100
1	125000	23.3	110
1	126791	23.5	120
1	128564	23.7	130
1	130106	23.9	140
1	131618	24.1	150
1	133867	24.3	160
1	135810	24.5	170
1	137589	24.7	180
1	139364	24.9	190
1	140883	25.1	200
1	145207	25.536	210
1	145207	25.536	220
1	146494	25.7	230
1	148078	25.9	240
1	149457	26.1	250
1	151936	26.3	260
1	153832	26.5	270
1	155358	26.7	280
1	156834	26.9	290
1	158813	27.1	300
1	160443	27.3	310
1	162511	27.5	320
1	164039	27.7	330
1	166317	27.9	340
1	168350	28.1	350
1	170135	28.3	360
1	171918	28.5	370
1	173695	28.7	380
1	175490	28.9	390
1	177124	29.1	400
1	179114	29.3	410
1	180891	29.5	410
1	180906	29.5	420
1	182747	29.7	430
1	184393	29.9	30
1	188409	30.332	40
1	188409	30.332	50
1	189537	30.5	60
1	191122	30.7	70
1	192889	30.9	80
1	194450	31.1	90
1	196975	31.3	100
1	199006	31.5	110
1	200805	31.7	120
1	204823	32.135	130
1	206791	32.367	140
1	206791	32.367	150
1	207847	32.5	160
1	209836	32.7	170
1	211605	32.9	180
1	213450	33.1	190
1	220193	34.012	200
1	220193	34.012	210
1	220193	34.012	220
1	220193	34.012	230
1	221664	34.1	240
1	224249	34.3	250
1	226038	34.5	260
1	227829	34.7	270
1	229349	34.9	280
1	230551	35.1	290
1	232492	35.3	300
1	234666	35.5	310
1	236248	35.7	320
1	240887	36.13	330
1	240887	36.13	340
1	242225	36.3	350
1	246104	36.732	360
1	246104	36.732	370
1	247610	36.9	380
1	249559	37.1	390
1	251147	37.3	400
1	252939	37.5	400
1	252954	37.5	410
1	255001	37.7	420
1	256643	37.9	30
1	258615	38.1	40
1	260173	38.3	50
1	261632	38.5	60
1	263106	38.7	70
1	265262	38.9	80
1	271297	39.67	90
1	271297	39.67	100
1	271297	39.67	110
1	271997	39.7	120
1	274880	39.9	130
1	276731	40.1	140
1	278516	40.3	150
1	280297	40.5	160
1	282076	40.7	170
1	283550	40.9	180
1	285071	41.1	190
1	287285	41.3	200
1	289288	41.5	210
1	291089	41.7	220
1	292871	41.9	230
1	294129	42.1	240
1	295273	42.3	250
1	297874	42.5	260
1	300097	42.7	270
1	301731	42.9	280
1	303116	43.1	290
1	304311	43.3	300
1	306254	43.5	310
1	308907	43.7	320
1	310767	43.9	330
1	312552	44.1	340
1	314550	44.3	350
1	317863	44.73	360
1	317863	44.73	370
1	319194	44.9	380
1	320636	45.1	390
1	322851	45.3	400
1	325220	45.5	400
1	325235	45.5	410
1	327009	45.7	420
1	328752	45.9	30
1	330558	46.1	40
1	331952	46.3	50
1	334480	46.5	60
1	336074	46.7	70
1	337550	46.9	80
1	339861	47.1	90
1	341788	47.3	100
1	343563	47.5	110
1	345360	47.7	120
1	347143	47.9	130
1	348978	48.1	140
1	350753	48.3	150
1	352542	48.5	160
1	354068	48.7	170
1	355550	48.9	180
1	357845	49.1	190
1	359771	49.3	200
1	361561	49.5	210
1	363340	49.7	220
1	364868	49.9	230
1	366386	50.1	240
1	368651	50.3	250
1	370566	50.5	260
1	372349	50.7	270
1	373991	50.9	280
1	375819	51.1	290
1	377737	51.3	300
1	379557	51.5	310
1	381362	51.7	320
1	385379	52.136	330
1	385379	52.136	340
1	386667	52.3	350
1	388248	52.5	360
1	389717	52.7	370
1	394153	53.135	380
1	394153	53.135	390
1	395512	53.3	400
1	397609	53.5	400
1	397624	53.5	410
1	399467	53.7	420
1	401264	53.9	30
1	403087	54.1	40
1	404880	54.3	50
1	406655	54.5	60
1	408436	54.7	70
1	410231	54.9	80
1	412048	55.1	90
1	413650	55.3	100
1	415650	55.5	110
1	419717	55.943	120
1	419717	55.943	130
1	423924	56.606	140
1	423924	56.606	150
1	423924	56.606	160
1	424999	56.7	170
1	427486	56.9	180
1	429133	57.1	190
1	431631	57.3	200
1	433677	57.5	210
1	437484	57.93	220
1	437484	57.93	230
1	438829	58.1	240
1	440323	58.3	250
1	441505	58.5	260
1	446389	58.931	270
1	446389	58.931	280
1	447879	59.1	290
1	449893	59.3	300
1	451519	59.5	310
1	453509	59.7	320
1	456984	60.131	330
1	456984	60.131	340
1	458504	60.3	350
1	465532	61.15	360
1	465532	61.15	370
1	465532	61.15	380
1	465532	61.15	390
1	467725	61.3	400
1	469850	61.5	400
1	469865	61.5	410
1	471728	61.7	420
1	473511	61.9	30
1	475348	62.1	40
1	477119	62.3	50
1	478912	62.5	60
1	482741	62.933	70
1	484759	63.162	80
1	484759	63.162	90
1	485958	63.3	100
1	487613	63.5	110
1	488943	63.7	120
1	490616	63.9	130
1	491580	64.1	140
1	496919	64.529	150
1	496919	64.529	160
1	500724	64.93	170
1	500724	64.93	180
1	501842	65.1	190
1	506061	65.53	200
1	506061	65.53	210
1	507187	65.7	220
1	511499	66.132	230
1	511499	66.132	240
1	513051	66.3	250
1	515167	66.5	260
1	516962	66.7	270
1	518731	66.9	280
1	520245	67.1	290
1	521447	67.3	300
1	523903	67.5	310
1	525766	67.7	320
1	527758	67.9	330
1	529593	68.1	340
1	531109	68.3	350
1	532593	68.5	360
1	537011	68.935	370
1	537011	68.935	380
1	538357	69.1	390
1	540191	69.3	400
1	542210	69.5	400
1	542225	69.5	410
1	544062	69.7	420
1	545855	69.9	30
1	547690	70.1	40
1	549473	70.3	50
1	550997	70.5	60
1	552461	70.7	70
1	554542	70.9	80
1	556705	71.1	90
1	560531	71.534	100
1	560531	71.534	110
1	561821	71.7	120
1	563722	71.9	130
1	565686	72.1	140
1	567515	72.3	150
1	569305	72.5	160
1	570580	72.7	170
1	571930	72.9	180
1	573110	73.1	190
1	574226	73.3	200
1	575353	73.5	210
1	577358	73.7	220
1	579466	73.9	230
1	580811	74.1	240
1	582406	74.3	250
1	583846	74.5	260
1	585292	74.7	270
1	586730	74.9	280
1	588216	75.1	290
1	589660	75.3	300
1	590519	75.5	310
1	592172	75.7	320
1	595602	76.13	330
1	595602	76.13	340
1	596633	76.3	350
1	598400	76.5	360
1	599838	76.7	370
1	601278	76.9	380
1	602762	77.1	390
1	604208	77.3	400
1	605642	77.5	400
1	605656	77.5	410
1	607132	77.7	420
1	608580	77.9	30
1	610064	78.1	40
1	613177	78.531	50
1	613177	78.531	60
1	614286	78.7	70
1	615834	78.9	80
1	618868	79.331	90
1	618868	79.331	100
1	620116	79.5	110
1	621672	79.7	120
1	623112	79.9	130
1	624445	80.1	140
1	625781	80.3	150
1	627201	80.5	160
1	628475	80.7	170
1	632088	81.221	180
1	632088	81.221	190
1	632818	81.3	200
1	634854	81.5	210
1	636306	81.7	220
1	637734	81.9	230
1	639081	82.1	240
1	640630	82.3	250
1	642116	82.5	260
1	643552	82.7	270
1	644851	82.9	280
1	646447	83.1	290
1	647932	83.3	300
1	649372	83.5	310
1	650810	83.7	320
1	652101	83.9	330
1	653712	84.1	340
1	655182	84.3	350
1	656628	84.5	360
1	657857	84.7	370
1	659371	84.9	380
1	660990	85.1	390
1	662251	85.3	400
1	663882	85.5	400
1	663896	85.5	410
1	665183	85.7	420
1	666574	85.9	30
1	668285	86.1	40
1	669795	86.3	50
1	671233	86.5	60
1	672687	86.7	70
1	675782	87.221	80
1	675782	87.221	90
1	676533	87.3	100
1	678516	87.5	110
1	679955	87.7	120
1	681155	87.9	130
1	682626	88.1	140
1	684384	88.3	150
1	687372	88.731	160
1	687372	88.731	170
1	688348	88.9	180
1	691843	89.334	190
1	693565	89.564	200
1	693565	89.564	210
1	694462	89.7	220
1	695945	89.9	230
1	697569	90.1	240
1	700518	90.531	250
1	700518	90.531	260
1	701825	90.7	270
1	703413	90.9	280
1	704657	91.1	290
1	706258	91.3	300
1	707816	91.5	310
1	709256	91.7	320
1	710706	91.9	330
1	712190	92.1	340
1	713626	92.3	350
1	716732	92.73	360
1	716732	92.73	370
1	717846	92.9	380
1	721260	93.414	390
1	721809	93.5	390
1	722766	93.646	400
1	722766	93.646	410
1	723336	93.7	420
1	725305	93.9	40
1	726651	94.1	50
1	728218	94.3	60
1	729692	94.5	70
1	730985	94.7	80
1	732568	94.9	90
1	734068	95.1	100
1	735512	95.3	110
1	736952	95.5	120
1	738393	95.7	130
1	739824	95.9	140
1	741308	96.1	150
1	742752	96.3	160
1	744196	96.5	170
1	745638	96.7	180
1	747084	96.9	190
1	748560	97.1	200
1	750000	97.3	210
1	751434	97.5	220
1	752888	97.7	230
1	754322	97.9	240
1	755800	98.1	250
1	758788	98.529	260
1	758788	98.529	270
1	759873	98.7	280
1	761577	98.9	290
1	762927	99.1	300
1	764517	99.3	310
1	765966	99.5	320
1	767404	99.7	330
1	768846	99.9	340
1	770324	100.1	350
1	771203	100.3	360
1	772946	100.5	370
1	774676	100.7	380
1	776126	100.9	390
1	777463	101.1	400
1	778776	101.3	410
1	780387	101.5	410
1	780401	101.5	420
1	782023	101.7	420
1	783453	101.9	30
1	784681	102.1	40
1	786312	102.3	50
1	787866	102.5	60
1	789151	102.7	70
1	792225	103.132	80
1	792225	103.132	90
1	793234	103.3	100
1	796824	103.73	110
1	796824	103.73	120
1	797936	103.9	130
1	799536	104.1	140
1	800825	104.3	150
1	802393	104.5	160
1	803677	104.7	170
1	805316	104.9	180
1	806800	105.1	190
1	808245	105.3	200
1	809684	105.5	210
1	811130	105.7	220
1	812409	105.9	230
1	814024	106.1	240
1	815240	106.3	250
1	816849	106.5	260
1	818417	106.7	270
1	819855	106.9	280
1	821337	107.1	290
1	822783	107.3	300
1	824217	107.5	310
1	825657	107.7	320
1	827093	107.9	330
1	828579	108.1	340
1	829826	108.3	350
1	831455	108.5	360
1	832754	108.7	370
1	834315	108.9	380
1	835652	109.1	390
1	837283	109.3	400
1	838731	109.5	400
1	838745	109.5	410
1	840219	109.7	420
1	843402	110.133	30
1	843402	110.133	40
1	844487	110.3	50
1	845783	110.5	60
1	847222	110.7	70
1	850570	111.13	80
1	850570	111.13	90
1	851613	111.3	100
1	853368	111.5	110
1	854810	111.7	120
1	856258	111.9	130
1	857734	112.1	140
1	859037	112.3	150
1	860620	112.5	160
1	863813	112.938	170
1	863813	112.938	180
1	864904	113.1	190
1	866458	113.3	200
1	867896	113.5	210
1	869326	113.7	220
1	870633	113.9	230
1	872230	114.1	240
1	873720	114.3	250
1	875156	114.5	260
1	876586	114.7	270
1	878026	114.9	280
1	879254	115.1	290
1	880903	115.3	300
1	882171	115.5	310
1	883809	115.7	320
1	885341	115.9	330
1	886818	116.1	340
1	888268	116.3	350
1	889567	116.5	360
1	891150	116.7	370
1	892590	116.9	380
1	893899	117.1	390
1	895536	117.3	400
1	896964	117.5	400
1	896978	117.5	410
1	900142	117.931	20
1	901797	118.161	30
1	901797	118.161	40
1	902682	118.3	50
1	904320	118.5	60
1	905748	118.7	70
1	907047	118.9	80
1	908659	119.1	90
1	910138	119.3	100
1	911578	119.5	110
1	913014	119.7	120
1	914458	119.9	130
1	917607	120.33	140
1	917607	120.33	150
1	918716	120.5	160
1	920266	120.7	170
1	921525	120.9	180
1	923214	121.1	190
1	924650	121.3	200
1	926088	121.5	210
1	927522	121.7	220
1	930452	122.136	230
1	930452	122.136	240
1	931842	122.3	250
1	935100	122.733	260
1	935100	122.733	270
1	936176	122.9	280
1	937595	123.1	290
1	939240	123.3	300
1	940678	123.5	310
1	942126	123.7	320
1	945228	124.131	330
1	946743	124.362	340
1	948381	124.592	350
1	948381	124.592	360
1	949246	124.7	370
1	950943	124.9	380
1	952437	125.1	390
1	954994	125.5	390
1	955570	125.531	400
1	955570	125.531	410
1	956695	125.7	420
1	959942	126.243	40
1	959942	126.243	50
1	960545	126.3	60
1	962709	126.5	70
1	964157	126.7	80
1	965581	126.9	90
1	967081	127.1	100
1	968519	127.3	110
1	969953	127.5	120
1	971397	127.7	130
1	972636	127.9	140
1	974327	128.1	150
1	975580	128.3	160
1	977219	128.5	170
1	978653	128.7	180
1	980107	128.9	190
1	981581	129.1	200
1	983020	129.3	210
1	984105	129.5	220
1	985198	129.7	230
1	986293	129.9	240
1	987439	130.1	250
1	988538	130.3	260
1	989625	130.5	270
1	990458	130.7	280
1	991749	130.9	290
1	992984	131.1	300
1	994079	131.3	310
1	995170	131.5	320
1	996275	131.7	330
1	997362	131.9	340
1	998511	132.1	350
1	999598	132.3	360
1	1000699	132.5	370
1	1001790	132.7	380
1	1002879	132.9	390
1	1004028	133.1	400
1	1005119	133.3	410
1	1006206	133.5	410
1	1006219	133.5	420
1	1007342	133.7	20
1	1008431	133.9	30
1	1009578	134.1	40
1	1010407	134.3	50
1	1011696	134.5	60
1	1012885	134.7	70
1	1013712	134.9	80
1	1014841	135.1	90
1	1016234	135.3	100
1	1017327	135.5	110
1	1018432	135.7	120
1	1019527	135.9	130
1	1020656	136.1	140
1	1022967	136.531	150
1	1022967	136.531	160
1	1023849	136.7	170
1	1025062	136.9	180
1	1027596	137.417	190
1	1027596	137.417	200
1	1028132	137.5	210
1	1029508	137.7	220
1	1030603	137.9	230
1	1031746	138.1	240
1	1034047	138.615	250
1	1034047	138.615	260
1	1034688	138.7	270
1	1036151	138.9	280
1	1037286	139.1	290
1	1038125	139.3	300
1	1039396	139.5	310
1	1040329	139.7	320
1	1041372	139.9	330
1	1042717	140.1	340
1	1043712	140.3	350
1	1045013	140.5	360
1	1046039	140.7	370
1	1046989	140.9	380
1	1048372	141.1	390
1	1049412	141.3	400
1	1050644	141.5	400
1	1050657	141.5	410
1	1051782	141.7	20
1	1052871	141.9	30
1	1054024	142.1	40
1	1055111	142.3	50
1	1055948	142.5	60
1	1057001	142.7	70
1	1058430	142.9	80
1	1059563	143.1	90
1	1060666	143.3	100
1	1061759	143.5	110
1	1062852	143.7	120
1	1063796	143.9	130
1	1065060	144.1	140
1	1066185	144.3	150
1	1067290	144.5	160
1	1068371	144.7	170
1	1069212	144.9	180
1	1070545	145.1	190
1	1072821	145.535	200
1	1072821	145.535	210
1	1073675	145.7	220
1	1074885	145.9	230
1	1076192	146.1	240
1	1077299	146.3	250
1	1078404	146.5	260
1	1079493	146.7	270
1	1080439	146.9	280
1	1081716	147.1	290
1	1082824	147.3	300
1	1083919	147.5	310
1	1085020	147.7	320
1	1086117	147.9	330
1	1087264	148.1	340
1	1089582	148.534	350
1	1089582	148.534	360
1	1090443	148.7	370
1	1091648	148.9	380
1	1092797	149.1	390
1	1093886	149.3	400
1	1094818	149.5	400
1	1094831	149.5	410
1	1096108	149.7	420
1	1097213	149.9	30
1	1098335	150.1	40
1	1099450	150.3	50
1	1100394	150.5	60
1	1102789	150.93	70
1	1102789	150.93	80
1	1103808	151.1	90
1	1105019	151.3	100
1	1105973	151.5	110
1	1107226	151.7	120
1	1108165	151.9	130
1	1109193	152.1	140
1	1110488	152.3	150
1	1112899	152.733	160
1	1112899	152.733	170
1	1113769	152.9	180
1	1114768	153.1	190
1	1116049	153.3	200
1	1117089	153.5	210
1	1118342	153.7	220
1	1119448	153.9	230
1	1120575	154.1	240
1	1121674	154.3	250
1	1122769	154.5	260
1	1123862	154.7	270
1	1124808	154.9	280
1	1126076	155.1	290
1	1126923	155.3	300
1	1128234	155.5	310
1	1129425	155.7	320
1	1130526	155.9	330
1	1131649	156.1	340
1	1133836	156.535	350
1	1133836	156.535	360
1	1134691	156.7	370
1	1136047	156.9	380
1	1138293	157.337	390
1	1138293	157.337	400
1	1139133	157.5	400
1	1139146	157.5	410
1	1140264	157.7	420
1	1142779	158.131	30
1	1144034	158.423	40
1	1144034	158.423	50
1	1144633	158.5	60
1	1146128	158.7	70
1	1147223	158.9	80
1	1148367	159.1	90
1	1149459	159.3	100
1	1150554	159.5	110
1	1151649	159.7	120
1	1152742	159.9	130
1	1153736	160.1	140
1	1154681	160.3	150
1	1155482	160.5	160
1	1158209	160.932	170
1	1158209	160.932	180
1	1159371	161.1	190
1	1160324	161.3	200
1	1161615	161.5	210
1	1162800	161.7	220
1	1163885	161.9	230
1	1165028	162.1	240
1	1166129	162.3	250
1	1167222	162.5	260
1	1168319	162.7	270
1	1169406	162.9	280
1	1170557	163.1	290
1	1172882	163.534	300
1	1172882	163.534	310
1	1173744	163.7	320
1	1174945	163.9	330
1	1176084	164.1	340
1	1176925	164.3	350
1	1179253	164.731	360
1	1179253	164.731	370
1	1179859	164.9	380
1	1181400	165.1	390
1	1182777	165.3	400
1	1183858	165.5	400
1	1183871	165.5	410
1	1184988	165.7	420
1	1186075	165.9	30
1	1187228	166.1	40
1	1188315	166.3	50
1	1189419	166.5	60
1	1190517	166.7	70
1	1191598	166.9	80
1	1192757	167.1	90
1	1193848	167.3	100
1	1194935	167.5	110
1	1196028	167.7	120
1	1197120	167.9	130
1	1198008	168.1	140
1	1200469	168.531	150
1	1200469	168.531	160
1	1201328	168.7	170
1	1202679	168.9	180
1	1203833	169.1	190
1	1204926	169.3	200
1	1205769	169.5	210
1	1207034	169.7	220
1	1207975	169.9	230
1	1209078	170.1	240
1	1211472	170.531	250
1	1211472	170.531	260
1	1212323	170.7	270
1	1214927	171.223	280
1	1214927	171.223	290
1	1215577	171.3	300
1	1217221	171.5	310
1	1218335	171.7	320
1	1219422	171.9	330
1	1220414	172.1	340
1	1221501	172.3	350
1	1222743	172.5	360
1	1223882	172.7	370
1	1224967	172.9	380
1	1226104	173.1	390
1	1227060	173.3	400
1	1228290	173.5	400
1	1228306	173.5	410
1	1229428	173.7	420
1	1231787	174.132	30
1	1231787	174.132	40
1	1232669	174.3	50
1	1233870	174.5	60
1	1234971	174.7	70
1	1236070	174.9	80
1	1237213	175.1	90
vector 15 FastSMRModel.logicComputer[0].node[6] QdLengthVector:vector ETV
attr source QdLength
attr title "Qd Length, vector"
vector 16 FastSMRModel.logicComputer[0].node[7] QdLengthVector:vector ETV
attr source QdLength
attr title "Qd Length, vector"
vector 17 FastSMRModel.logicComputer[0].node[5] QdLengthVector:vector ETV
attr source QdLength
attr title "Qd Length, vector"
5	5594	10.1	30
5	7501	10.3	40
5	9290	10.5	50
5	11069	10.7	60
5	12846	10.9	70
5	14530	11.1	80
5	20086	11.72	90
5	23582	12.142	100
5	26952	12.561	110
5	30065	12.982	120
5	30065	12.982	130
5	30065	12.982	140
5	30065	12.982	150
5	30065	12.982	160
5	30065	12.982	170
5	31934	13.1	180
5	34626	13.3	190
5	36409	13.5	190
5	36424	13.5	200
5	37958	13.7	210
5	39966	13.9	30
5	44185	14.521	40
5	44185	14.521	50
5	49310	14.945	60
5	49310	14.945	70
5	49310	14.945	80
5	50725	15.1	90
5	52779	15.3	100
5	54567	15.5	110
5	56354	15.7	120
5	58131	15.9	130
5	59958	16.1	140
5	61749	16.3	150
5	63540	16.5	160
5	65315	16.7	170
5	66599	16.9	180
5	72575	17.52	190
5	72575	17.52	200
5	72575	17.52	210
5	74226	17.7	220
5	76155	17.9	230
5	77986	18.1	240
5	79628	18.3	250
5	81527	18.5	260
5	83357	18.7	270
5	87900	19.326	280
5	87900	19.326	290
5	87900	19.326	300
5	89987	19.5	310
5	94715	20.122	320
5	94715	20.122	330
5	98207	20.541	340
5	98207	20.541	350
5	98207	20.541	360
5	105108	21.126	370
5	105108	21.126	380
5	105108	21.126	390
5	107779	21.5	390
5	109048	21.718	10
5	109048	21.718	20
5	109048	21.718	30
5	111573	21.9	40
5	114198	22.1	50
5	115697	22.3	60
5	117592	22.5	70
5	119241	22.7	80
5	120714	22.9	90
5	122941	23.1	100
5	125004	23.3	110
5	126795	23.5	120
5	132228	24.119	130
5	132228	24.119	140
5	132228	24.119	150
5	133871	24.3	160
5	135814	24.5	170
5	137593	24.7	180
5	139368	24.9	190
5	140887	25.1	200
5	142211	25.3	210
5	144411	25.5	220
5	146498	25.7	230
5	148082	25.9	240
5	149461	26.1	250
5	151940	26.3	260
5	157329	26.919	270
5	157329	26.919	280
5	157329	26.919	290
5	158817	27.1	300
5	160447	27.3	310
5	162515	27.5	320
5	164043	27.7	330
5	166321	27.9	340
5	168354	28.1	350
5	170139	28.3	360
5	171922	28.5	370
5	173699	28.7	380
5	175494	28.9	390
5	177128	29.1	400
5	179118	29.3	410
5	180895	29.5	410
5	180910	29.5	420
5	182751	29.7	420
5	184397	29.9	30
5	186368	30.1	40
5	187853	30.3	50
5	189541	30.5	60
5	191126	30.7	70
5	192893	30.9	80
5	194454	31.1	90
5	196979	31.3	100
5	199010	31.5	110
5	200809	31.7	120
5	202407	31.9	130
5	204122	32.1	140
5	205874	32.3	150
5	207851	32.5	160
5	209840	32.7	170
5	211609	32.9	180
5	213454	33.1	190
5	219076	33.923	200
5	219076	33.923	210
5	219076	33.923	220
5	219076	33.923	230
5	221668	34.1	240
5	224253	34.3	250
5	226042	34.5	260
5	231041	35.119	270
5	231041	35.119	280
5	231041	35.119	290
5	232496	35.3	300
5	234670	35.5	310
5	236252	35.7	320
5	238513	35.9	330
5	240231	36.1	340
5	242229	36.3	350
5	243810	36.5	360
5	245422	36.7	370
5	247614	36.9	380
5	249563	37.1	390
5	251151	37.3	400
5	252943	37.5	400
5	252958	37.5	410
5	255005	37.7	420
5	256647	37.9	30
5	263864	38.742	40
5	263864	38.742	50
5	263864	38.742	60
5	267765	39.161	70
5	267765	39.161	80
5	270635	39.585	90
5	270635	39.585	100
5	270635	39.585	110
5	272001	39.7	120
5	274884	39.9	130
5	276735	40.1	140
5	278520	40.3	150
5	280301	40.5	160
5	282080	40.7	170
5	283554	40.9	180
5	285075	41.1	190
5	287289	41.3	200
5	289292	41.5	210
5	291093	41.7	220
5	295777	42.322	230
5	295777	42.322	240
5	295777	42.322	250
5	297878	42.5	260
5	300101	42.7	270
5	304799	43.321	280
5	304799	43.321	290
5	304799	43.321	300
5	306258	43.5	310
5	308911	43.7	320
5	310771	43.9	330
5	312556	44.1	340
5	317611	44.726	350
5	317611	44.726	360
5	321188	45.146	370
5	321188	45.146	380
5	321188	45.146	390
5	322855	45.3	400
5	325224	45.5	400
5	325239	45.5	410
5	327013	45.7	420
5	328756	45.9	30
5	330562	46.1	40
5	331956	46.3	50
5	338168	46.919	60
5	338168	46.919	70
5	338168	46.919	80
5	339865	47.1	90
5	341792	47.3	100
5	343567	47.5	110
5	345364	47.7	120
5	347147	47.9	130
5	348982	48.1	140
5	350757	48.3	150
5	356156	48.92	160
5	356156	48.92	170
5	356156	48.92	180
5	357849	49.1	190
5	359775	49.3	200
5	361565	49.5	210
5	366994	50.12	220
5	366994	50.12	230
5	366994	50.12	240
5	368655	50.3	250
5	370570	50.5	260
5	372353	50.7	270
5	373995	50.9	280
5	375823	51.1	290
5	377741	51.3	300
5	379561	51.5	310
5	381366	51.7	320
5	382990	51.9	330
5	384631	52.1	340
5	386671	52.3	350
5	388252	52.5	360
5	389721	52.7	370
5	391942	52.9	380
5	393468	53.1	390
5	395516	53.3	400
5	397613	53.5	400
5	397628	53.5	410
5	399471	53.7	420
5	401268	53.9	30
5	403091	54.1	40
5	404884	54.3	50
5	406659	54.5	60
5	408440	54.7	70
5	410235	54.9	80
5	412052	55.1	90
5	413654	55.3	100
5	415654	55.5	110
5	417421	55.7	120
5	418905	55.9	130
5	423152	56.521	140
5	423152	56.521	150
5	423152	56.521	160
5	425003	56.7	170
5	427490	56.9	180
5	429137	57.1	190
5	431635	57.3	200
5	433681	57.5	210
5	435460	57.7	220
5	436940	57.9	230
5	441961	58.523	240
5	441961	58.523	250
5	441961	58.523	260
5	444038	58.7	270
5	445787	58.9	280
5	447883	59.1	290
5	449897	59.3	300
5	451523	59.5	310
5	453513	59.7	320
5	454980	59.9	330
5	460654	60.519	340
5	463328	60.941	350
5	463863	61.065	360
5	463863	61.065	370
5	463863	61.065	380
5	464578	61.1	390
5	467729	61.3	400
5	469854	61.5	400
5	469869	61.5	410
5	471732	61.7	420
5	473515	61.9	30
5	475352	62.1	40
5	477123	62.3	50
5	478916	62.5	60
5	480504	62.7	70
5	482178	62.9	80
5	483766	63.1	90
5	485962	63.3	100
5	487617	63.5	110
5	491910	64.125	120
5	491910	64.125	130
5	491910	64.125	140
5	494453	64.3	150
5	496378	64.5	160
5	498059	64.7	170
5	500224	64.9	180
5	501846	65.1	190
5	503647	65.3	200
5	508849	65.921	210
5	508849	65.921	220
5	508849	65.921	230
5	510812	66.1	240
5	513055	66.3	250
5	515171	66.5	260
5	516966	66.7	270
5	518735	66.9	280
5	520249	67.1	290
5	521451	67.3	300
5	523907	67.5	310
5	525770	67.7	320
5	527762	67.9	330
5	533203	68.521	340
5	533203	68.521	350
5	533203	68.521	360
5	534838	68.7	370
5	536464	68.9	380
5	538361	69.1	390
5	540195	69.3	400
5	542214	69.5	400
5	542229	69.5	410
5	544066	69.7	420
5	545859	69.9	30
5	547694	70.1	40
5	552956	70.722	50
5	552956	70.722	60
5	552956	70.722	70
5	554546	70.9	80
5	556709	71.1	90
5	558484	71.3	100
5	559982	71.5	110
5	561825	71.7	120
5	563726	71.9	130
5	565690	72.1	140
5	567519	72.3	150
5	569308	72.5	160
5	576163	73.6	170
5	576163	73.6	180
5	576163	73.6	190
5	576163	73.6	200
5	576163	73.6	210
5	577361	73.7	220
5	579469	73.9	230
5	580814	74.1	240
5	582409	74.3	250
5	583849	74.5	260
5	585295	74.7	270
5	586733	74.9	280
5	588219	75.1	290
5	590965	75.549	300
5	590965	75.549	310
5	592175	75.7	320
5	594011	75.9	330
5	595188	76.1	340
5	596636	76.3	350
5	598403	76.5	360
5	599841	76.7	370
5	601281	76.9	380
5	602765	77.1	390
5	604211	77.3	400
5	605645	77.5	400
5	605659	77.5	410
5	607135	77.7	20
5	608583	77.9	30
5	610067	78.1	40
5	611511	78.3	50
5	612644	78.5	60
5	614289	78.7	70
5	615837	78.9	80
5	617315	79.1	90
5	618263	79.3	100
5	620119	79.5	110
5	621675	79.7	120
5	623115	79.9	130
5	626276	80.329	140
5	627912	80.65	150
5	627912	80.65	160
5	628478	80.7	170
5	631652	81.137	180
5	631652	81.137	190
5	632821	81.3	200
5	634857	81.5	210
5	636309	81.7	220
5	637737	81.9	230
5	639084	82.1	240
5	640633	82.3	250
5	642119	82.5	260
5	643555	82.7	270
5	644854	82.9	280
5	646450	83.1	290
5	647935	83.3	300
5	649375	83.5	310
5	650813	83.7	320
5	652104	83.9	330
5	653715	84.1	340
5	655185	84.3	350
5	656631	84.5	360
5	657860	84.7	370
5	659374	84.9	380
5	660993	85.1	390
5	662254	85.3	400
5	663885	85.5	400
5	663899	85.5	410
5	667074	85.929	20
5	667074	85.929	30
5	668288	86.1	40
5	669798	86.3	50
5	671236	86.5	60
5	672690	86.7	70
5	675291	87.136	80
5	675291	87.136	90
5	676536	87.3	100
5	678519	87.5	110
5	681568	87.935	120
5	681568	87.935	130
5	682629	88.1	140
5	684387	88.3	150
5	685833	88.5	160
5	689006	88.936	170
5	690504	89.166	180
5	690504	89.166	190
5	691247	89.3	200
5	692814	89.5	210
5	694465	89.7	220
5	695948	89.9	230
5	699024	90.333	240
5	699024	90.333	250
5	699928	90.5	260
5	701828	90.7	270
5	705177	91.134	280
5	705177	91.134	290
5	706261	91.3	300
5	707819	91.5	310
5	709259	91.7	320
5	710709	91.9	330
5	712193	92.1	340
5	713629	92.3	350
5	715061	92.5	360
5	716194	92.7	370
5	717849	92.9	380
5	720679	93.33	390
5	720679	93.33	400
5	721812	93.5	400
5	721826	93.5	410
5	723339	93.7	30
5	725308	93.9	40
5	726654	94.1	50
5	728221	94.3	60
5	729695	94.5	70
5	730988	94.7	80
5	732571	94.9	90
5	734071	95.1	100
5	735515	95.3	110
5	736955	95.5	120
5	738396	95.7	130
5	739827	95.9	140
5	741311	96.1	150
5	742755	96.3	160
5	744199	96.5	170
5	745641	96.7	180
5	747087	96.9	190
5	748563	97.1	200
5	750003	97.3	210
5	751437	97.5	220
5	752891	97.7	230
5	754325	97.9	240
5	755803	98.1	250
5	757247	98.3	260
5	758376	98.5	270
5	759876	98.7	280
5	761580	98.9	290
5	762930	99.1	300
5	764520	99.3	310
5	765969	99.5	320
5	767407	99.7	330
5	768849	99.9	340
5	771583	100.332	350
5	771583	100.332	360
5	772949	100.5	370
5	774679	100.7	380
5	776129	100.9	390
5	779364	101.337	400
5	779364	101.337	410
5	780390	101.5	410
5	780404	101.5	420
5	782026	101.7	20
5	785201	102.132	30
5	785201	102.132	40
5	786315	102.3	50
5	787869	102.5	60
5	789154	102.7	70
5	790720	102.9	80
5	791926	103.1	90
5	793237	103.3	100
5	795140	103.5	110
5	796286	103.7	120
5	797939	103.9	130
5	799539	104.1	140
5	800828	104.3	150
5	802396	104.5	160
5	803680	104.7	170
5	805319	104.9	180
5	806803	105.1	190
5	808248	105.3	200
5	809687	105.5	210
5	811133	105.7	220
5	812412	105.9	230
5	815756	106.334	240
5	815756	106.334	250
5	816852	106.5	260
5	818420	106.7	270
5	819858	106.9	280
5	821340	107.1	290
5	822786	107.3	300
5	824220	107.5	310
5	825660	107.7	320
5	827096	107.9	330
5	828582	108.1	340
5	829829	108.3	350
5	831458	108.5	360
5	832757	108.7	370
5	834318	108.9	380
5	835655	109.1	390
5	837286	109.3	400
5	838734	109.5	400
5	838748	109.5	410
5	840222	109.7	20
5	841666	109.9	30
5	842837	110.1	40
5	846162	110.531	50
5	846162	110.531	60
5	847225	110.7	70
5	848818	110.9	80
5	850136	111.1	90
5	851616	111.3	100
5	853371	111.5	110
5	854813	111.7	120
5	856261	111.9	130
5	857737	112.1	140
5	859040	112.3	150
5	860623	112.5	160
5	862077	112.7	170
5	863203	112.9	180
5	864907	113.1	190
5	866461	113.3	200
5	867899	113.5	210
5	869329	113.7	220
5	870636	113.9	230
5	872233	114.1	240
5	873723	114.3	250
5	875159	114.5	260
5	876589	114.7	270
5	879758	115.131	280
5	879758	115.131	290
5	882655	115.53	300
5	882655	115.53	310
5	883812	115.7	320
5	885344	115.9	330
5	886821	116.1	340
5	888271	116.3	350
5	889570	116.5	360
5	891153	116.7	370
5	892593	116.9	380
5	893902	117.1	390
5	895539	117.3	400
5	896967	117.5	400
5	896981	117.5	410
5	898312	117.7	20
5	899587	117.9	30
5	901043	118.1	40
5	902685	118.3	50
5	904323	118.5	60
5	905751	118.7	70
5	907050	118.9	80
5	908662	119.1	90
5	910141	119.3	100
5	911581	119.5	110
5	913017	119.7	120
5	914461	119.9	130
5	915949	120.1	140
5	917078	120.3	150
5	918719	120.5	160
5	920269	120.7	170
5	921528	120.9	180
5	923217	121.1	190
5	924653	121.3	200
5	926091	121.5	210
5	928650	121.934	220
5	928650	121.934	230
5	929871	122.1	240
5	931845	122.3	250
5	933250	122.5	260
5	934531	122.7	270
5	936179	122.9	280
5	937598	123.1	290
5	939243	123.3	300
5	940681	123.5	310
5	943701	123.934	320
5	943701	123.934	330
5	944646	124.1	340
5	946169	124.3	350
5	947450	124.5	360
5	949249	124.7	370
5	950946	124.9	380
5	952440	125.1	390
5	953868	125.3	400
5	954997	125.5	400
5	955011	125.5	410
5	958362	125.93	30
5	959537	126.159	40
5	959537	126.159	50
5	960548	126.3	60
5	962712	126.5	70
5	964160	126.7	80
5	965584	126.9	90
5	967084	127.1	100
5	968522	127.3	110
5	969956	127.5	120
5	971400	127.7	130
5	972639	127.9	140
5	974330	128.1	150
5	975583	128.3	160
5	977222	128.5	170
5	978656	128.7	180
5	980110	128.9	190
5	981584	129.1	200
5	983022	129.3	210
5	984107	129.5	220
5	985200	129.7	230
5	986295	129.9	240
5	987441	130.1	250
5	988540	130.3	260
5	990824	130.73	270
5	990824	130.73	280
5	991751	130.9	290
5	992986	131.1	300
5	994081	131.3	310
5	995172	131.5	320
5	996277	131.7	330
5	997364	131.9	340
5	998513	132.1	350
5	999600	132.3	360
5	1000701	132.5	370
5	1001792	132.7	380
5	1002881	132.9	390
5	1004030	133.1	400
5	1005121	133.3	410
5	1006208	133.5	410
5	1006221	133.5	420
5	1007344	133.7	20
5	1008433	133.9	30
5	1010777	134.331	40
5	1010777	134.331	50
5	1011698	134.5	60
5	1014362	135.021	70
5	1014362	135.021	80
5	1014843	135.1	90
5	1016236	135.3	100
5	1017329	135.5	110
5	1018434	135.7	120
5	1019529	135.9	130
5	1020658	136.1	140
5	1021765	136.3	150
5	1022545	136.5	160
5	1023851	136.7	170
5	1025064	136.9	180
5	1026201	137.1	190
5	1026989	137.3	200
5	1028134	137.5	210
5	1029510	137.7	220
5	1030605	137.9	230
5	1031748	138.1	240
5	1033591	138.53	250
5	1033591	138.53	260
5	1034690	138.7	270
5	1036153	138.9	280
5	1038503	139.332	290
5	1038503	139.332	300
5	1040733	139.734	310
5	1041944	139.967	320
5	1041944	139.967	330
5	1044074	140.329	340
5	1044074	140.329	350
5	1045015	140.5	360
5	1047397	140.931	370
5	1047397	140.931	380
5	1048374	141.1	390
5	1049414	141.3	400
5	1050646	141.5	400
5	1050659	141.5	410
5	1051784	141.7	20
5	1052873	141.9	30
5	1054026	142.1	40
5	1056542	142.629	50
5	1056542	142.629	60
5	1057003	142.7	70
5	1058432	142.9	80
5	1059565	143.1	90
5	1060668	143.3	100
5	1061761	143.5	110
5	1062854	143.7	120
5	1063798	143.9	130
5	1065062	144.1	140
5	1066187	144.3	150
5	1067292	144.5	160
5	1069590	144.931	170
5	1069590	144.931	180
5	1070547	145.1	190
5	1071744	145.3	200
5	1072522	145.5	210
5	1073677	145.7	220
5	1074887	145.9	230
5	1076194	146.1	240
5	1077301	146.3	250
5	1078406	146.5	260
5	1079495	146.7	270
5	1080441	146.9	280
5	1081718	147.1	290
5	1082826	147.3	300
5	1083921	147.5	310
5	1085022	147.7	320
5	1086119	147.9	330
5	1087266	148.1	340
5	1088353	148.3	350
5	1089145	148.5	360
5	1090445	148.7	370
5	1091650	148.9	380
5	1092799	149.1	390
5	1093888	149.3	400
5	1094820	149.5	400
5	1094833	149.5	410
5	1096110	149.7	20
5	1097215	149.9	30
5	1098337	150.1	40
5	1099452	150.3	50
5	1101637	150.732	60
5	1101637	150.732	70
5	1102361	150.9	80
5	1103810	151.1	90
5	1105021	151.3	100
5	1105975	151.5	110
5	1107228	151.7	120
5	1109577	152.131	130
5	1109577	152.131	140
5	1110490	152.3	150
5	1111687	152.5	160
5	1112473	152.7	170
5	1115148	153.132	180
5	1115148	153.132	190
5	1116051	153.3	200
5	1117091	153.5	210
5	1118344	153.7	220
5	1119450	153.9	230
5	1120577	154.1	240
5	1121676	154.3	250
5	1122771	154.5	260
5	1123864	154.7	270
5	1124810	154.9	280
5	1127319	155.331	290
5	1127319	155.331	300
5	1128236	155.5	310
5	1129427	155.7	320
5	1130528	155.9	330
5	1131651	156.1	340
5	1132746	156.3	350
5	1133536	156.5	360
5	1134693	156.7	370
5	1136049	156.9	380
5	1137202	157.1	390
5	1137992	157.3	400
5	1139135	157.5	400
5	1140644	157.729	10
5	1140644	157.729	20
5	1141577	157.9	30
5	1143604	158.334	40
5	1143604	158.334	50
5	1144635	158.5	60
5	1146130	158.7	70
5	1147225	158.9	80
5	1148369	159.1	90
5	1149461	159.3	100
5	1150556	159.5	110
5	1151651	159.7	120
5	1152744	159.9	130
5	1154971	160.335	140
5	1155838	160.565	150
5	1155838	160.565	160
5	1156672	160.7	170
5	1157827	160.9	180
5	1160686	161.33	190
5	1160686	161.33	200
5	1161617	161.5	210
5	1162802	161.7	220
5	1163887	161.9	230
5	1165030	162.1	240
5	1166131	162.3	250
5	1167224	162.5	260
5	1168321	162.7	270
5	1169408	162.9	280
5	1170559	163.1	290
5	1171638	163.3	300
5	1172436	163.5	310
5	1173746	163.7	320
5	1174947	163.9	330
5	1177291	164.33	340
5	1177291	164.33	350
5	1178218	164.5	360
5	1180149	164.929	370
5	1180149	164.929	380
5	1181402	165.1	390
5	1182779	165.3	400
5	1183860	165.5	400
5	1183873	165.5	410
5	1184990	165.7	20
5	1186077	165.9	30
5	1187230	166.1	40
5	1188317	166.3	50
5	1189421	166.5	60
5	1190519	166.7	70
5	1191600	166.9	80
5	1192759	167.1	90
5	1193850	167.3	100
5	1194937	167.5	110
5	1196030	167.7	120
5	1198372	168.129	130
5	1198372	168.129	140
5	1199309	168.3	150
5	1200171	168.5	160
5	1201330	168.7	170
5	1202681	168.9	180
5	1203835	169.1	190
5	1206155	169.533	200
5	1206155	169.533	210
5	1208349	169.931	220
5	1209632	170.164	230
5	1209632	170.164	240
5	1210367	170.3	250
5	1212877	170.734	260
5	1212877	170.734	270
5	1214547	171.133	280
5	1214547	171.133	290
5	1215579	171.3	300
5	1217223	171.5	310
5	1218337	171.7	320
5	1219424	171.9	330
5	1220416	172.1	340
5	1221503	172.3	350
5	1222745	172.5	360
5	1223884	172.7	370
5	1224969	172.9	380
5	1226106	173.1	390
5	1227062	173.3	400
5	1228292	173.5	400
5	1228308	173.5	410
5	1229430	173.7	20
5	1230537	173.9	30
5	1231355	174.1	40
5	1232671	174.3	50
5	1233872	174.5	60
5	1234973	174.7	70
5	1236072	174.9	80
5	1237215	175.1	90
5	1238306	175.3	100
5	1239068	175.5	110
5	1239814	175.7	120
5	1240562	175.9	130
5	1241360	176.1	140
5	1242107	176.3	150
5	1243163	177.142	160
5	1249539	178.858	170
5	1249539	178.858	180
5	1249539	178.858	190
5	1249539	178.858	200
5	1249539	178.858	210
5	1249539	178.858	220
5	1249539	178.858	230
5	1249539	178.858	240
5	1249539	178.858	250
5	1249539	178.858	260
5	1249539	178.858	270
5	1251280	178.9	280
5	1254971	179.1	290
5	1256591	179.3	300
5	1258397	179.5	310
5	1260147	179.7	320
5	1264504	179.9	330
5	1268721	180.1	340
5	1276156	180.3	350
5	1278785	180.5	360
5	1280278	180.7	370
5	1282346	180.9	380
5	1284057	181.1	390
5	1286133	181.3	400
5	1288260	181.5	400
5	1288272	181.5	410
5	1290075	181.7	420
5	1291858	181.9	430
5	1296149	182.372	440
5	1296149	182.372	450
5	1297139	182.5	460
5	1299102	182.7	470
5	1300607	182.9	480
5	1302243	183.1	490
5	1304229	183.3	500
5	1306342	183.5	510
5	1308115	183.7	520
5	1311957	184.169	530
5	1311957	184.169	540
5	1312805	184.3	550
5	1314918	184.5	560
5	1316829	184.7	570
5	1318926	184.9	580
5	1320185	185.1	590
5	1322386	185.3	600
5	1324381	185.5	610
5	1326156	185.7	620
5	1327953	185.9	630
3	5592	10.1	30
3	7499	10.3	40
3	9288	10.5	50
3	11067	10.7	60
3	14291	11.083	70
3	14528	11.1	80
3	16272	11.3	90
3	18014	11.5	100
3	19480	11.7	110
3	21244	11.9	120
3	22818	12.1	130
3	24540	12.3	140
3	26104	12.5	150
3	27836	12.7	160
3	29211	12.9	170
3	31932	13.1	180
3	34624	13.3	190
3	36407	13.5	190
3	36422	13.5	200
3	37956	13.7	210
3	39964	13.9	30
3	41899	14.1	40
3	43655	14.481	50
3	43808	14.5	60
3	46532	14.7	70
3	48536	14.9	80
3	50723	15.1	90
3	52777	15.3	100
3	54565	15.5	110
3	56352	15.7	120
3	58129	15.9	130
3	59956	16.1	140
3	61747	16.3	150
3	63538	16.5	160
3	65313	16.7	170
3	66597	16.9	180
3	68305	17.1	190
3	70364	17.3	200
3	71967	17.5	210
3	74224	17.7	220
3	76153	17.9	230
3	79397	18.285	240
3	79626	18.3	250
3	81525	18.5	260
3	83355	18.7	270
3	85126	18.9	280
3	87209	19.286	290
3	87396	19.3	300
3	89985	19.5	310
3	92365	19.7	320
3	93569	19.9	330
3	98757	20.584	340
3	98757	20.584	350
3	98757	20.584	360
3	99938	20.7	370
3	102734	20.9	380
3	104482	21.1	390
3	106739	21.3	400
3	107777	21.5	400
3	107792	21.5	410
3	108692	21.7	30
3	111571	21.9	40
3	116602	22.382	50
3	116602	22.382	60
3	117590	22.5	70
3	119239	22.7	80
3	120712	22.9	90
3	122939	23.1	100
3	125002	23.3	110
3	126793	23.5	120
3	128566	23.7	130
3	130108	23.9	140
3	131620	24.1	150
3	133869	24.3	160
3	135812	24.5	170
3	137591	24.7	180
3	139366	24.9	190
3	141996	25.284	200
3	142209	25.3	210
3	144409	25.5	220
3	146496	25.7	230
3	149254	26.086	240
3	149459	26.1	250
3	151938	26.3	260
3	153834	26.5	270
3	155360	26.7	280
3	156836	26.9	290
3	158815	27.1	300
3	160445	27.3	310
3	162513	27.5	320
3	164041	27.7	330
3	166319	27.9	340
3	168352	28.1	350
3	170137	28.3	360
3	171920	28.5	370
3	173697	28.7	380
3	175492	28.9	390
3	177126	29.1	400
3	179116	29.3	410
3	180893	29.5	410
3	180908	29.5	420
3	184160	29.883	20
3	184395	29.9	30
3	186366	30.1	40
3	187851	30.3	50
3	189539	30.5	60
3	191124	30.7	70
3	192891	30.9	80
3	194452	31.1	90
3	196977	31.3	100
3	199008	31.5	110
3	200807	31.7	120
3	202405	31.9	130
3	204120	32.1	140
3	205872	32.3	150
3	207849	32.5	160
3	209838	32.7	170
3	211607	32.9	180
3	213452	33.1	190
3	215221	33.3	200
3	216450	33.5	210
3	218413	33.887	220
3	218596	33.9	230
3	221666	34.1	240
3	224251	34.3	250
3	226040	34.5	260
3	227831	34.7	270
3	229351	34.9	280
3	230553	35.1	290
3	232494	35.3	300
3	234668	35.5	310
3	236250	35.7	320
3	238511	35.9	330
3	240229	36.1	340
3	242227	36.3	350
3	243808	36.5	360
3	245420	36.7	370
3	247612	36.9	380
3	249561	37.1	390
3	251149	37.3	400
3	252941	37.5	400
3	252956	37.5	410
3	256408	37.882	20
3	256645	37.9	30
3	258617	38.1	40
3	260175	38.3	50
3	261634	38.5	60
3	263108	38.7	70
3	265264	38.9	80
3	267080	39.1	90
3	268710	39.3	100
3	271778	39.682	110
3	271999	39.7	120
3	274882	39.9	130
3	276733	40.1	140
3	278518	40.3	150
3	280299	40.5	160
3	282078	40.7	170
3	283552	40.9	180
3	286988	41.284	190
3	287287	41.3	200
3	289290	41.5	210
3	291091	41.7	220
3	292873	41.9	230
3	294131	42.1	240
3	295275	42.3	250
3	297876	42.5	260
3	301528	42.888	270
3	301733	42.9	280
3	303118	43.1	290
3	304313	43.3	300
3	306256	43.5	310
3	310532	43.883	320
3	310769	43.9	330
3	312554	44.1	340
3	314552	44.3	350
3	316088	44.5	360
3	321840	45.191	370
3	321840	45.191	380
3	324070	45.373	390
3	324070	45.373	400
3	325222	45.5	400
3	327626	45.723	10
3	329192	45.904	20
3	329192	45.904	30
3	331719	46.281	40
3	331954	46.3	50
3	334482	46.5	60
3	336076	46.7	70
3	337552	46.9	80
3	339863	47.1	90
3	341790	47.3	100
3	343565	47.5	110
3	345362	47.7	120
3	347145	47.9	130
3	348980	48.1	140
3	350755	48.3	150
3	352544	48.5	160
3	354070	48.7	170
3	355552	48.9	180
3	357847	49.1	190
3	359773	49.3	200
3	361563	49.5	210
3	363342	49.7	220
3	364870	49.9	230
3	366388	50.1	240
3	368653	50.3	250
3	370568	50.5	260
3	373752	50.882	270
3	375578	51.088	280
3	375821	51.1	290
3	377739	51.3	300
3	379559	51.5	310
3	382779	51.89	320
3	382988	51.9	330
3	384629	52.1	340
3	386669	52.3	350
3	388250	52.5	360
3	391687	52.886	370
3	391940	52.9	380
3	393466	53.1	390
3	395514	53.3	400
3	397611	53.5	400
3	397626	53.5	410
3	399469	53.7	420
3	401266	53.9	30
3	403089	54.1	40
3	404882	54.3	50
3	406657	54.5	60
3	408438	54.7	70
3	410233	54.9	80
3	412050	55.1	90
3	413652	55.3	100
3	415652	55.5	110
3	417419	55.7	120
3	418903	55.9	130
3	420931	56.1	140
3	421965	56.3	150
3	422794	56.5	160
3	425001	56.7	170
3	427488	56.9	180
3	429135	57.1	190
3	431633	57.3	200
3	433679	57.5	210
3	435458	57.7	220
3	438652	58.088	230
3	442553	58.567	240
3	442553	58.567	250
3	442553	58.567	260
3	444036	58.7	270
3	447706	59.087	280
3	447881	59.1	290
3	449895	59.3	300
3	451521	59.5	310
3	453511	59.7	320
3	454978	59.9	330
3	456192	60.1	340
3	458506	60.3	350
3	460162	60.5	360
3	461627	60.7	370
3	464317	61.085	380
3	464576	61.1	390
3	467727	61.3	400
3	469852	61.5	400
3	469867	61.5	410
3	471730	61.7	20
3	473513	61.9	30
3	475350	62.1	40
3	477121	62.3	50
3	478914	62.5	60
3	480502	62.7	70
3	482176	62.9	80
3	483764	63.1	90
3	485960	63.3	100
3	488720	63.683	110
3	492486	64.173	120
3	492486	64.173	130
3	492486	64.173	140
3	494451	64.3	150
3	496376	64.5	160
3	498057	64.7	170
3	500222	64.9	180
3	501844	65.1	190
3	505303	65.484	200
3	505552	65.5	210
3	507189	65.7	220
3	508476	65.9	230
3	510810	66.1	240
3	513053	66.3	250
3	515169	66.5	260
3	516964	66.7	270
3	518733	66.9	280
3	522656	67.381	290
3	522656	67.381	300
3	523905	67.5	310
3	525768	67.7	320
3	527760	67.9	330
3	529595	68.1	340
3	531111	68.3	350
3	532595	68.5	360
3	534836	68.7	370
3	538156	69.086	380
3	538359	69.1	390
3	540193	69.3	400
3	542212	69.5	400
3	542227	69.5	410
3	544064	69.7	420
3	545857	69.9	30
3	547692	70.1	40
3	549475	70.3	50
3	550999	70.5	60
3	552463	70.7	70
3	554544	70.9	80
3	556707	71.1	90
3	558482	71.3	100
3	561582	71.683	110
3	563486	71.889	120
3	563724	71.9	130
3	565688	72.1	140
3	567517	72.3	150
3	570385	72.683	160
3	570582	72.7	170
3	571932	72.9	180
3	573112	73.1	190
3	574228	73.3	200
3	575355	73.5	210
3	577360	73.7	220
3	580582	74.082	230
3	580813	74.1	240
3	582408	74.3	250
3	583848	74.5	260
3	585294	74.7	270
3	586732	74.9	280
3	588218	75.1	290
3	589662	75.3	300
3	590521	75.5	310
3	592174	75.7	320
3	594010	75.9	330
3	595187	76.1	340
3	596635	76.3	350
3	598402	76.5	360
3	599840	76.7	370
3	601280	76.9	380
3	602764	77.1	390
3	604210	77.3	400
3	605644	77.5	400
3	605658	77.5	410
3	607134	77.7	20
3	608582	77.9	30
3	610066	78.1	40
3	611510	78.3	50
3	612643	78.5	60
3	614288	78.7	70
3	615836	78.9	80
3	617314	79.1	90
3	618262	79.3	100
3	620118	79.5	110
3	621674	79.7	120
3	624214	80.082	130
3	624447	80.1	140
3	625783	80.3	150
3	627203	80.5	160
3	628477	80.7	170
3	630428	80.9	180
3	631359	81.1	190
3	632820	81.3	200
3	634856	81.5	210
3	636308	81.7	220
3	638870	82.085	230
3	639083	82.1	240
3	640632	82.3	250
3	642118	82.5	260
3	644646	82.886	270
3	644853	82.9	280
3	646449	83.1	290
3	647934	83.3	300
3	649374	83.5	310
3	651918	83.889	320
3	652103	83.9	330
3	653714	84.1	340
3	655184	84.3	350
3	656630	84.5	360
3	659154	84.883	370
3	659373	84.9	380
3	660992	85.1	390
3	662253	85.3	400
3	663884	85.5	400
3	663898	85.5	410
3	665185	85.7	420
3	666576	85.9	30
3	668287	86.1	40
3	669797	86.3	50
3	671235	86.5	60
3	672689	86.7	70
3	674109	86.9	80
3	676276	87.282	90
3	676535	87.3	100
3	678518	87.5	110
3	679957	87.7	120
3	681157	87.9	130
3	682628	88.1	140
3	684386	88.3	150
3	685832	88.5	160
3	686955	88.7	170
3	688350	88.9	180
3	689905	89.1	190
3	691246	89.3	200
3	692813	89.5	210
3	695726	89.883	220
3	695947	89.9	230
3	697571	90.1	240
3	699732	90.49	250
3	699927	90.5	260
3	701827	90.7	270
3	703415	90.9	280
3	704659	91.1	290
3	706260	91.3	300
3	707818	91.5	310
3	709258	91.7	320
3	710708	91.9	330
3	712192	92.1	340
3	713628	92.3	350
3	715060	92.5	360
3	716193	92.7	370
3	717848	92.9	380
3	719440	93.1	390
3	720319	93.3	400
3	721811	93.5	400
3	723125	93.683	410
3	723338	93.7	420
3	726440	94.085	40
3	726653	94.1	50
3	728220	94.3	60
3	730768	94.682	70
3	730987	94.7	80
3	732570	94.9	90
3	734070	95.1	100
3	735514	95.3	110
3	736954	95.5	120
3	738395	95.7	130
3	739826	95.9	140
3	741310	96.1	150
3	742754	96.3	160
3	744198	96.5	170
3	745640	96.7	180
3	747086	96.9	190
3	748562	97.1	200
3	750002	97.3	210
3	751436	97.5	220
3	752890	97.7	230
3	754324	97.9	240
3	755802	98.1	250
3	757246	98.3	260
3	759690	98.683	270
3	759875	98.7	280
3	762712	99.083	290
3	762929	99.1	300
3	764519	99.3	310
3	765968	99.5	320
3	767406	99.7	330
3	768848	99.9	340
3	770326	100.1	350
3	771205	100.3	360
3	772948	100.5	370
3	774678	100.7	380
3	777248	101.084	390
3	777465	101.1	400
3	778778	101.3	410
3	780389	101.5	410
3	780403	101.5	420
3	782025	101.7	430
3	783455	101.9	30
3	784683	102.1	40
3	786314	102.3	50
3	788934	102.684	60
3	789153	102.7	70
3	790719	102.9	80
3	792965	103.283	90
3	793236	103.3	100
3	795139	103.5	110
3	796285	103.7	120
3	797938	103.9	130
3	800622	104.285	140
3	800827	104.3	150
3	802395	104.5	160
3	803679	104.7	170
3	805318	104.9	180
3	806802	105.1	190
3	808247	105.3	200
3	809686	105.5	210
3	812210	105.886	220
3	812411	105.9	230
3	814026	106.1	240
3	815242	106.3	250
3	816851	106.5	260
3	818419	106.7	270
3	819857	106.9	280
3	821339	107.1	290
3	822785	107.3	300
3	824219	107.5	310
3	825659	107.7	320
3	827095	107.9	330
3	828581	108.1	340
3	829828	108.3	350
3	832557	108.686	360
3	832756	108.7	370
3	834317	108.9	380
3	835654	109.1	390
3	837285	109.3	400
3	838733	109.5	400
3	838747	109.5	410
3	840221	109.7	420
3	841665	109.9	30
3	842836	110.1	40
3	844489	110.3	50
3	845785	110.5	60
3	848606	110.884	70
3	848817	110.9	80
3	850135	111.1	90
3	851615	111.3	100
3	853370	111.5	110
3	854812	111.7	120
3	856260	111.9	130
3	858816	112.282	140
3	859039	112.3	150
3	860622	112.5	160
3	862076	112.7	170
3	863202	112.9	180
3	864906	113.1	190
3	866460	113.3	200
3	867898	113.5	210
3	870462	113.893	220
3	870635	113.9	230
3	872232	114.1	240
3	873722	114.3	250
3	875158	114.5	260
3	876588	114.7	270
3	878028	114.9	280
3	879256	115.1	290
3	880905	115.3	300
3	882173	115.5	310
3	883811	115.7	320
3	885343	115.9	330
3	886820	116.1	340
3	889340	116.483	350
3	889569	116.5	360
3	891152	116.7	370
3	892592	116.9	380
3	893901	117.1	390
3	895538	117.3	400
3	896966	117.5	400
3	898084	117.682	410
3	898311	117.7	420
3	899586	117.9	30
3	901042	118.1	40
3	902684	118.3	50
3	904322	118.5	60
3	906844	118.886	70
3	907049	118.9	80
3	908661	119.1	90
3	910140	119.3	100
3	911580	119.5	110
3	913016	119.7	120
3	914460	119.9	130
3	915948	120.1	140
3	917077	120.3	150
3	918718	120.5	160
3	920268	120.7	170
3	921527	120.9	180
3	923216	121.1	190
3	924652	121.3	200
3	926090	121.5	210
3	929050	121.979	220
3	929050	121.979	230
3	929870	122.1	240
3	933024	122.483	250
3	933249	122.5	260
3	934530	122.7	270
3	936178	122.9	280
3	937597	123.1	290
3	939242	123.3	300
3	940680	123.5	310
3	942128	123.7	320
3	943304	123.9	330
3	944645	124.1	340
3	947270	124.484	350
3	947449	124.5	360
3	949248	124.7	370
3	950945	124.9	380
3	952439	125.1	390
3	953867	125.3	400
3	954996	125.5	400
3	955010	125.5	410
3	956697	125.7	420
3	957995	125.9	40
3	959142	126.1	50
3	960547	126.3	60
3	962711	126.5	70
3	964159	126.7	80
3	965583	126.9	90
3	967083	127.1	100
3	968521	127.3	110
3	969955	127.5	120
3	971399	127.7	130
3	972638	127.9	140
3	974329	128.1	150
3	975582	128.3	160
3	977221	128.5	170
3	978655	128.7	180
3	980109	128.9	190
3	981583	129.1	200
3	983021	129.3	210
3	984106	129.5	220
3	985199	129.7	230
3	986294	129.9	240
3	987440	130.1	250
3	988539	130.3	260
3	989626	130.5	270
3	990459	130.7	280
3	991750	130.9	290
3	992985	131.1	300
3	994080	131.3	310
3	995171	131.5	320
3	996276	131.7	330
3	997363	131.9	340
3	998512	132.1	350
3	999599	132.3	360
3	1000700	132.5	370
3	1001791	132.7	380
3	1002880	132.9	390
3	1004029	133.1	400
3	1005120	133.3	410
3	1006207	133.5	410
3	1006220	133.5	420
3	1007343	133.7	430
3	1008432	133.9	30
3	1009579	134.1	40
3	1010408	134.3	50
3	1011697	134.5	60
3	1012886	134.7	70
3	1013713	134.9	80
3	1014842	135.1	90
3	1016235	135.3	100
3	1017328	135.5	110
3	1018433	135.7	120
3	1019528	135.9	130
3	1020657	136.1	140
3	1021764	136.3	150
3	1022544	136.5	160
3	1023850	136.7	170
3	1025063	136.9	180
3	1026200	137.1	190
3	1026988	137.3	200
3	1028133	137.5	210
3	1029509	137.7	220
3	1030604	137.9	230
3	1031747	138.1	240
3	1032830	138.3	250
3	1033360	138.5	260
3	1034689	138.7	270
3	1036152	138.9	280
3	1037287	139.1	290
3	1038126	139.3	300
3	1039397	139.5	310
3	1040330	139.7	320
3	1041373	139.9	330
3	1042718	140.1	340
3	1043713	140.3	350
3	1045874	140.685	360
3	1046040	140.7	370
3	1046990	140.9	380
3	1049221	141.282	390
3	1049413	141.3	400
3	1050645	141.5	400
3	1050658	141.5	410
3	1051783	141.7	20
3	1052872	141.9	30
3	1054025	142.1	40
3	1055112	142.3	50
3	1055949	142.5	60
3	1057002	142.7	70
3	1058431	142.9	80
3	1059564	143.1	90
3	1060667	143.3	100
3	1061760	143.5	110
3	1063629	143.886	120
3	1063797	143.9	130
3	1065061	144.1	140
3	1066186	144.3	150
3	1067291	144.5	160
3	1068372	144.7	170
3	1069213	144.9	180
3	1070546	145.1	190
3	1071743	145.3	200
3	1073498	145.683	210
3	1074674	145.882	220
3	1074886	145.9	230
3	1076193	146.1	240
3	1077300	146.3	250
3	1078405	146.5	260
3	1080258	146.882	270
3	1080440	146.9	280
3	1081717	147.1	290
3	1082825	147.3	300
3	1083920	147.5	310
3	1085021	147.7	320
3	1086118	147.9	330
3	1087265	148.1	340
3	1088352	148.3	350
3	1089144	148.5	360
3	1090444	148.7	370
3	1091649	148.9	380
3	1092798	149.1	390
3	1094653	149.482	400
3	1094819	149.5	400
3	1094832	149.5	410
3	1096109	149.7	420
3	1097214	149.9	30
3	1098336	150.1	40
3	1100225	150.492	50
3	1100395	150.5	60
3	1101337	150.7	70
3	1102360	150.9	80
3	1103809	151.1	90
3	1105784	151.482	100
3	1105974	151.5	110
3	1107992	151.883	120
3	1108166	151.9	130
3	1109194	152.1	140
3	1110489	152.3	150
3	1111686	152.5	160
3	1112472	152.7	170
3	1113770	152.9	180
3	1114769	153.1	190
3	1116922	153.482	200
3	1117090	153.5	210
3	1118343	153.7	220
3	1119449	153.9	230
3	1120576	154.1	240
3	1121675	154.3	250
3	1122770	154.5	260
3	1124649	154.887	270
3	1124809	154.9	280
3	1126077	155.1	290
3	1126924	155.3	300
3	1128235	155.5	310
3	1129426	155.7	320
3	1130527	155.9	330
3	1131650	156.1	340
3	1132745	156.3	350
3	1134508	156.682	360
3	1134692	156.7	370
3	1136048	156.9	380
3	1137201	157.1	390
3	1138968	157.483	400
3	1139134	157.5	400
3	1139147	157.5	410
3	1140265	157.7	20
3	1141576	157.9	30
3	1142492	158.1	40
3	1143277	158.3	50
3	1144634	158.5	60
3	1146129	158.7	70
3	1147224	158.9	80
3	1148368	159.1	90
3	1149460	159.3	100
3	1150555	159.5	110
3	1151650	159.7	120
3	1153569	160.086	130
3	1153737	160.1	140
3	1156186	160.608	150
3	1157211	160.79	160
3	1157211	160.79	170
3	1157826	160.9	180
3	1159372	161.1	190
3	1160325	161.3	200
3	1161616	161.5	210
3	1162801	161.7	220
3	1163886	161.9	230
3	1165029	162.1	240
3	1166130	162.3	250
3	1167223	162.5	260
3	1168320	162.7	270
3	1169407	162.9	280
3	1170558	163.1	290
3	1171637	163.3	300
3	1172435	163.5	310
3	1173745	163.7	320
3	1174946	163.9	330
3	1176085	164.1	340
3	1176926	164.3	350
3	1178217	164.5	360
3	1180537	164.974	370
3	1180537	164.974	380
3	1181401	165.1	390
3	1182778	165.3	400
3	1183859	165.5	400
3	1183872	165.5	410
3	1184989	165.7	420
3	1186076	165.9	30
3	1187229	166.1	40
3	1188316	166.3	50
3	1189420	166.5	60
3	1190518	166.7	70
3	1191599	166.9	80
3	1192758	167.1	90
3	1193849	167.3	100
3	1194936	167.5	110
3	1196029	167.7	120
3	1197121	167.9	130
3	1198009	168.1	140
3	1199308	168.3	150
3	1201175	168.683	160
3	1201329	168.7	170
3	1202680	168.9	180
3	1203834	169.1	190
3	1204927	169.3	200
3	1205770	169.5	210
3	1207035	169.7	220
3	1207976	169.9	230
3	1209079	170.1	240
3	1211027	170.486	250
3	1211163	170.5	260
3	1212324	170.7	270
3	1213747	170.9	280
3	1215340	171.282	290
3	1215578	171.3	300
3	1217222	171.5	310
3	1218336	171.7	320
3	1220243	172.084	330
3	1221317	172.291	340
3	1221502	172.3	350
3	1222744	172.5	360
3	1223883	172.7	370
3	1224968	172.9	380
3	1226867	173.282	390
3	1227061	173.3	400
3	1228291	173.5	400
3	1228307	173.5	410
3	1229429	173.7	20
3	1230536	173.9	30
3	1231354	174.1	40
3	1232670	174.3	50
3	1233871	174.5	60
3	1234972	174.7	70
3	1236071	174.9	80
3	1237214	175.1	90
3	1238305	175.3	100
3	1239067	175.5	110
3	1239813	175.7	120
3	1240561	175.9	130
3	1241359	176.1	140
3	1243736	177.443	160
3	1243736	177.443	170
3	1243736	177.443	180
3	1243736	177.443	190
3	1244991	177.625	200
3	1244991	177.625	210
3	1245606	177.7	220
3	1246387	177.9	230
3	1246973	178.1	240
3	1247752	178.3	250
3	1248367	178.5	260
3	1248915	178.7	270
3	1251279	178.9	280
3	1254970	179.1	290
3	1256590	179.3	300
3	1258396	179.5	310
3	1260146	179.7	320
3	1264503	179.9	330
3	1268720	180.1	340
3	1276155	180.3	350
3	1278784	180.5	360
3	1280277	180.7	370
3	1282345	180.9	380
3	1284056	181.1	390
3	1286132	181.3	400
3	1288259	181.5	400
3	1288271	181.5	410
3	1290074	181.7	420
3	1291857	181.9	430
3	1293690	182.1	440
3	1295227	182.3	450
3	1297138	182.5	460
3	1299101	182.7	470
3	1301942	183.087	480
3	1302242	183.1	490
3	1304228	183.3	500
3	1306341	183.5	510
3	1308114	183.7	520
3	1309905	183.9	530
3	1311207	184.1	540
3	1312804	184.3	550
3	1314917	184.5	560
3	1316828	184.7	570
3	1318925	184.9	580
3	1320184	185.1	590
3	1322385	185.3	600
3	1324380	185.5	610
3	1326155	185.7	620
3	1327952	185.9	630
3	1342079	189.5	230
3	1351087	189.985	10
3	1351087	189.985	20
3	1351087	189.985	30
3	1351087	189.985	40
3	1351087	189.985	50
3	1351087	189.985	60
3	1351087	189.985	70
3	1351087	189.985	80
3	1351087	189.985	90
3	1351087	189.985	100
3	1351087	189.985	110
3	1351087	189.985	120
3	1351087	189.985	130
3	1351087	189.985	140
3	1351087	189.985	150
3	1351087	189.985	160
3	1351087	189.985	170
3	1351087	189.985	180
3	1351087	189.985	190
3	1351087	189.985	200
3	1355915	190.1	210
3	1360249	190.3	220
3	1361995	190.5	230
3	1363439	190.7	240
3	1364887	190.9	250
3	1366371	191.1	260
3	1367815	191.3	270
3	1369249	191.5	280
3	1372334	191.963	290
3	1372334	191.963	300
3	1375006	192.366	310
3	1375006	192.366	320
3	1378034	192.775	330
3	1378034	192.775	340
3	1378947	192.9	350
3	1380995	193.1	360
3	1382429	193.3	370
3	1383861	193.5	380
3	1385121	193.7	390
3	1386429	193.9	400
3	1387949	194.1	410
3	1389717	194.3	420
3	1392983	194.763	430
3	1392983	194.763	440
3	1393892	194.9	450
3	1395582	195.1	460
3	1398747	195.566	470
3	1398747	195.566	480
3	1399590	195.7	490
3	1401385	195.9	500
3	1402873	196.1	510
3	1404317	196.3	520
3	1405763	196.5	530
3	1407203	196.7	540
3	1408637	196.9	550
3	1410123	197.1	560
3	1411569	197.3	570
3	1412999	197.5	570
3	1413010	197.5	580
16	1249370	178.814	160
16	1253980	179.056	170
16	1257008	179.325	180
16	1259488	179.609	190
16	1264065	179.879	200
16	1269529	180.152	210
16	1269529	180.152	220
16	1269529	180.152	230
16	1269529	180.152	240
16	1269529	180.152	250
16	1269529	180.152	260
16	1269529	180.152	270
16	1269529	180.152	280
16	1269529	180.152	290
16	1269529	180.152	300
16	1269529	180.152	310
16	1269529	180.152	320
16	1269529	180.152	330
16	1269529	180.152	340
16	1279571	180.568	350
16	1281628	180.853	360
16	1281628	180.853	370
16	1285041	181.17	380
16	1285041	181.17	390
16	1286135	181.3	400
16	1288274	181.5	410
16	1290077	181.7	420
16	1291860	181.9	430
16	1293693	182.1	440
16	1295230	182.3	450
16	1297141	182.5	460
16	1299104	182.7	470
16	1300609	182.9	480
16	1302245	183.1	490
16	1304231	183.3	500
16	1306344	183.5	510
16	1308117	183.7	520
16	1309908	183.9	530
16	1311210	184.1	540
16	1312807	184.3	550
16	1314920	184.5	560
16	1316831	184.7	570
16	1321178	185.175	580
16	1321178	185.175	590
16	1322388	185.3	600
16	1324383	185.5	610
16	1326158	185.7	620
16	1327955	185.9	630
16	1329763	186.1	640
16	1330977	186.3	650
16	1332103	186.5	660
16	1332897	186.7	660
16	1332911	186.7	670
16	1333730	186.9	280
16	1336510	189.3	290
16	1336510	189.3	300
16	1336510	189.3	310
16	1336510	189.3	320
16	1336510	189.3	330
16	1336510	189.3	340
16	1336510	189.3	350
16	1336510	189.3	360
16	1336510	189.3	370
16	1343817	189.564	150
16	1343817	189.564	160
16	1343817	189.564	170
16	1343817	189.564	180
16	1347979	189.7	190
16	1349871	189.9	200
16	1355917	190.1	210
16	1360251	190.3	220
16	1361997	190.5	230
16	1363441	190.7	240
16	1364889	190.9	250
16	1366373	191.1	260
16	1367817	191.3	270
16	1369251	191.5	280
16	1370687	191.7	290
16	1373780	192.165	300
16	1375494	192.414	310
16	1375494	192.414	320
16	1376257	192.5	330
16	1377492	192.7	340
16	1378949	192.9	350
16	1380997	193.1	360
16	1382431	193.3	370
16	1383863	193.5	380
16	1386935	193.963	390
16	1386935	193.963	400
16	1387951	194.1	410
16	1389719	194.3	420
16	1391159	194.5	430
16	1392333	194.7	430
16	1392347	194.7	440
16	1393894	194.9	450
16	1395584	195.1	460
16	1397028	195.3	470
16	1398210	195.5	480
16	1399592	195.7	490
16	1401387	195.9	500
16	1402875	196.1	510
16	1404319	196.3	520
16	1405765	196.5	530
16	1407205	196.7	540
16	1408639	196.9	550
16	1410125	197.1	560
16	1411571	197.3	570
16	1413012	197.5	580
16	1414451	197.7	190
16	1415320	197.9	200
16	1422003	200.359	210
16	1422003	200.359	220
16	1422003	200.359	230
16	1424030	200.513	240
16	1424030	200.513	250
16	1424030	200.513	260
16	1424030	200.513	270
16	1424030	200.513	280
16	1424030	200.513	290
16	1424030	200.513	300
16	1424030	200.513	310
16	1424030	200.513	320
16	1429162	200.669	330
16	1431665	200.855	340
16	1431911	200.9	350
16	1433380	201.1	360
16	1434615	201.3	370
16	1435704	201.5	380
16	1436711	201.7	390
16	1437904	201.9	400
16	1439046	202.1	410
16	1440145	202.3	390
16	1441250	202.5	400
16	1442332	202.7	400
16	1442345	202.7	410
16	1443444	202.9	50
16	1444595	203.1	60
16	1445684	203.3	70
16	1446777	203.5	80
16	1447876	203.7	90
16	1448975	203.9	100
16	1450114	204.1	110
16	1451121	204.3	120
16	1452308	204.5	130
16	1453407	204.7	140
16	1454506	204.9	150
16	1455647	205.1	160
16	1457457	205.454	170
16	1457695	205.5	180
16	1458952	205.7	190
16	1460051	205.9	200
16	1461196	206.1	210
16	1463012	206.46	220
16	1463220	206.5	230
16	1464499	206.7	240
16	1465592	206.9	250
16	1466735	207.1	260
16	1468276	207.452	270
16	1468470	207.5	280
16	1469929	207.7	290
16	1471136	207.9	300
16	1472281	208.1	310
16	1473380	208.3	320
16	1474465	208.5	330
16	1475564	208.7	340
16	1476663	208.9	350
16	1477802	209.1	360
16	1478901	209.3	370
16	1479994	209.5	380
16	1480934	209.7	390
16	1482098	209.9	400
16	1483338	210.1	410
16	1484441	210.3	390
16	1485379	210.5	400
16	1486630	210.7	400
16	1486643	210.7	410
16	1487748	210.9	50
16	1488897	211.1	60
16	1489986	211.3	70
16	1491085	211.5	80
16	1492182	211.7	90
16	1493277	211.9	100
16	1494416	212.1	110
16	1495509	212.3	120
16	1496598	212.5	130
16	1497707	212.7	140
vector 18 FastSMRModel.logicComputer[0].node[8] QdLengthVector:vector ETV
attr source QdLength
attr title "Qd Length, vector"
vector 19 FastSMRModel.logicComputer[0].node[9] QdLengthVector:vector ETV
attr source QdLength
attr title "Qd Length, vector"
vector 20 FastSMRModel.logicComputer[0].node[10] QdLengthVector:vector ETV
attr source QdLength
attr title "Qd Length, vector"
19	1516448	220.184	320
19	1516800	220.407	320
19	1517157	220.628	320
19	1517549	220.849	320
19	1518043	221.071	320
19	1518952	221.292	320
19	1520295	221.514	320
19	1522678	221.738	320
19	1525821	221.958	320
19	1528398	222.187	320
19	1530222	222.407	320
19	1532068	222.627	320
19	1533977	222.849	330
19	1540860	223.071	340
19	1543468	223.293	350
19	1546103	223.514	360
19	1547825	223.735	370
19	1549732	223.955	380
19	1552810	224.18	390
19	1557269	224.403	400
19	1567971	224.622	410
19	1571731	224.844	420
19	1574191	225.065	430
19	1576199	225.289	440
19	1579227	225.512	450
19	1582007	225.733	460
19	1582007	225.733	470
19	1582007	225.733	480
19	1582007	225.733	490
19	1582007	225.733	500
19	1582007	225.733	510
19	1582007	225.733	520
19	1582007	225.733	530
19	1582007	225.733	540
19	1587174	225.956	550
19	1587174	225.956	560
19	1587174	225.956	570
19	1587174	225.956	580
19	1587174	225.956	590
19	1587174	225.956	600
19	1587174	225.956	610
19	1591731	226.181	620
19	1591731	226.181	630
19	1591731	226.181	640
19	1591731	226.181	650
19	1591731	226.181	660
19	1591731	226.181	670
19	1591731	226.181	680
19	1591731	226.181	690
19	1591731	226.181	700
19	1591731	226.181	710
19	1591731	226.181	720
19	1591731	226.181	730
19	1591731	226.181	740
19	1598234	226.402	750
19	1598234	226.402	760
19	1598234	226.402	770
19	1598234	226.402	780
19	1598234	226.402	790
19	1598234	226.402	800
19	1598234	226.402	810
19	1598234	226.402	820
19	1600580	226.5	830
19	1603727	226.7	840
19	1605703	226.9	850
19	1618548	227.322	860
19	1622938	227.549	870
19	1622938	227.549	880
19	1626628	227.7	890
19	1628210	227.9	900
19	1630290	228.1	900
19	1630304	228.1	910
19	1632169	228.3	920
19	1633670	228.5	930
19	1635301	228.7	940
19	1637556	228.9	950
19	1639112	229.1	960
19	1640527	229.3	970
19	1642976	229.5	180
19	1644809	229.7	190
19	1646594	229.9	200
20	1519291	221.356	320
20	1521136	221.582	320
20	1523311	221.822	320
20	1526897	222.046	320
20	1529005	222.271	320
20	1530786	222.494	320
20	1532950	222.728	320
20	1536726	222.953	320
20	1542235	223.178	320
20	1544985	223.401	320
20	1547013	223.63	320
20	1548817	223.857	320
20	1550639	224.08	330
20	1555848	224.303	340
20	1562247	224.526	350
20	1570731	224.749	360
20	1573241	224.972	370
20	1575425	225.195	380
20	1578095	225.42	390
20	1580939	225.643	400
20	1585682	225.87	410
20	1590253	226.095	420
20	1596871	226.318	430
20	1601992	226.54	440
[...]
44	6715199	972.5	410
44	6717350	972.7	270
44	6719137	972.9	280
44	6720968	973.1	290
44	6722757	973.3	300
44	6724223	973.5	310
44	6729025	974.066	320
44	6732148	974.429	330
44	6732148	974.429	340
44	6732148	974.429	350
44	6732818	974.5	360
44	6735076	974.7	370
44	6737187	974.9	380
44	6738745	975.1	390
44	6740225	975.3	400
44	6742021	975.5	410
44	6743254	975.7	420
44	6745209	975.9	430
44	6747032	976.1	220
44	6749709	976.3	230
44	6751729	976.5	240
44	6753630	976.7	250
44	6755118	976.9	260
44	6756894	977.1	270
44	6759013	977.3	280
44	6760567	977.5	290
44	6762321	977.7	300
44	6767407	978.264	310
44	6767407	978.264	320
44	6767719	978.3	330
44	6769879	978.5	340
44	6771400	978.7	350
44	6773140	978.9	360
44	6774994	979.1	370
44	6777131	979.3	380
44	6778349	979.5	390
44	6780573	979.7	400
44	6782243	979.9	410
44	6784338	980.1	420
44	6786167	980.3	400
44	6787939	980.5	400
44	6787951	980.5	410
44	6789751	980.7	280
44	6790927	980.9	290
44	6792972	981.1	300
44	6794896	981.3	310
44	6800869	982.067	320
44	6803665	982.427	330
44	6807340	982.795	340
44	6807340	982.795	350
44	6807340	982.795	360
44	6807340	982.795	370
44	6807340	982.795	380
44	6808856	982.9	390
44	6811551	983.1	400
44	6812737	983.3	410
44	6814056	983.5	420
44	6815739	983.7	430
44	6818139	983.9	440
44	6820384	984.1	220
44	6822384	984.3	230
44	6824275	984.5	240
44	6826060	984.7	250
44	6827845	984.9	260
44	6829676	985.1	270
44	6831463	985.3	280
44	6833246	985.5	290
44	6834710	985.7	300
44	6836506	985.9	310
44	6838667	986.1	320
44	6840446	986.3	330
44	6842235	986.5	340
44	6847522	987.28	350
44	6847522	987.28	360
44	6847522	987.28	370
44	6847954	987.3	380
44	6850790	987.5	390
44	6855481	988.065	400
44	6855481	988.065	410
44	6855771	988.1	420
44	6860024	988.5	390
44	6860900	988.661	270
44	6860900	988.661	280
44	6861171	988.7	290
44	6862858	988.9	300
44	6864415	989.1	310
44	6866324	989.3	320
44	6871743	989.865	330
44	6871743	989.865	340
44	6872033	989.9	350
44	6874208	990.1	360
44	6876016	990.3	370
44	6877920	990.5	380
44	6879689	990.7	390
44	6881651	990.9	400
44	6884105	991.1	410
44	6885894	991.3	420
44	6887680	991.5	430
44	6889477	991.7	410
44	6891015	991.9	420
44	6892829	992.1	220
44	6894950	992.3	230
44	6896739	992.5	240
44	6898518	992.7	250
44	6900313	992.9	260
44	6902138	993.1	270
44	6903612	993.3	280
44	6905413	993.5	290
44	6907519	993.7	300
44	6909308	993.9	310
44	6911121	994.1	320
44	6912910	994.3	330
44	6914697	994.5	340
44	6916199	994.7	350
44	6917971	994.9	360
44	6920144	995.1	370
44	6921927	995.3	380
44	6923712	995.5	390
44	6925233	995.7	400
44	6927269	995.9	410
44	6932032	996.459	400
44	6932032	996.459	410
44	6932370	996.5	410
44	6932382	996.5	420
44	6934271	996.7	270
44	6936043	996.9	280
44	6937918	997.1	290
44	6939923	997.3	300
44	6941802	997.5	310
44	6943595	997.7	320
44	6945382	997.9	330
44	6946935	998.1	340
44	6948968	998.3	350
44	6950795	998.5	360
44	6955514	999.063	370
44	6955514	999.063	380
44	6955874	999.1	390
44	6957756	999.3	400
44	6958924	999.5	410
44	6960049	999.7	410
44	6961191	999.9	420
44	6962349	1000.1	430
44	6963468	1000.3	440
44	6966137	1000.5	450
44	6967940	1000.7	460
44	6969131	1000.9	470
44	6971183	1001.1	480
44	6972673	1001.3	490
44	6974097	1001.5	500
44	6975551	1001.7	510
44	6976985	1001.9	520
44	6978477	1002.1	530
44	6979909	1002.3	540
44	6981349	1002.5	550
44	6982474	1002.7	560
44	6983576	1002.9	570
44	6985717	1003.1	580
44	6987189	1003.3	590
44	6988344	1003.5	600
44	6992351	1004.059	610
44	6992351	1004.059	620
44	6992689	1004.1	630
44	6994504	1004.3	400
44	6995945	1004.5	400
44	6995957	1004.5	410
44	6997406	1004.7	270
44	6998561	1004.9	280
44	7002571	1005.461	290
44	7002571	1005.461	300
44	7002890	1005.5	310
44	7004707	1005.7	320
44	7006145	1005.9	330
44	7007350	1006.1	340
44	7008627	1006.3	350
44	7009956	1006.5	360
44	7011677	1006.7	370
44	7013461	1006.9	380
44	7014366	1007.1	390
44	7016051	1007.3	400
44	7017860	1007.5	410
44	7019316	1007.7	410
44	7020448	1007.9	210
44	7021938	1008.1	220
44	7023381	1008.3	230
44	7024470	1008.5	240
44	7032646	1010.724	250
44	7032646	1010.724	260
44	7032646	1010.724	270
44	7032646	1010.724	280
44	7032646	1010.724	290
44	7032646	1010.724	300
44	7032646	1010.724	310
44	7032646	1010.724	320
44	7032646	1010.724	330
44	7032646	1010.724	340
44	7032646	1010.724	350
44	7036878	1010.9	360
44	7038915	1011.1	370
44	7040020	1011.3	380
44	7041123	1011.5	390
44	7042016	1011.7	400
44	7043319	1011.9	410
44	7045599	1012.319	420
44	7045599	1012.319	430
44	7046564	1012.5	430
44	7046575	1012.5	440
44	7047582	1012.7	270
44	7048877	1012.9	280
44	7050010	1013.1	290
44	7051115	1013.3	300
44	7052202	1013.5	310
44	7053307	1013.7	320
44	7054402	1013.9	330
44	7055543	1014.1	340
44	7056632	1014.3	350
44	7057731	1014.5	360
44	7058828	1014.7	370
44	7059927	1014.9	380
44	7061056	1015.1	390
44	7062161	1015.3	400
44	7063249	1015.5	410
44	7064353	1015.7	410
44	7066169	1016.121	180
44	7067194	1016.343	190
44	7067194	1016.343	200
44	7069596	1016.734	210
44	7069596	1016.734	220
44	7070507	1016.9	230
44	7072214	1017.1	240
44	7073311	1017.3	250
44	7074404	1017.5	260
44	7075503	1017.7	270
44	7076323	1017.9	280
44	7077435	1018.1	290
44	7078830	1018.3	300
44	7079965	1018.5	310
44	7081064	1018.7	320
44	7082163	1018.9	330
44	7083296	1019.1	340
44	7084385	1019.3	350
44	7086193	1019.719	360
44	7086193	1019.719	370
44	7087212	1019.9	380
45	6555659	959.75	370
45	6556070	960.045	370
45	6556540	960.348	370
45	6557023	960.642	370
45	6558144	960.937	380
45	6562286	961.241	390
45	6564366	961.535	400
45	6567475	961.832	410
45	6572218	962.126	420
45	6580594	962.42	430
45	6586627	962.713	440
45	6593329	963.007	450
45	6593329	963.007	460
45	6599671	963.301	470
45	6606923	963.599	480
45	6615853	963.893	490
45	6623593	964.191	500
45	6629586	964.486	510
45	6629586	964.486	520
45	6629586	964.486	530
45	6629586	964.486	540
45	6629586	964.486	550
45	6629586	964.486	560
45	6629586	964.486	570
45	6629586	964.486	580
45	6629586	964.486	590
45	6629586	964.486	600
45	6629586	964.486	610
45	6629586	964.486	620
45	6638011	964.794	630
45	6638011	964.794	640
45	6641021	965.087	650
45	6641021	965.087	660
45	6641021	965.087	670
45	6641021	965.087	680
45	6641021	965.087	690
45	6641021	965.087	700
45	6641021	965.087	710
45	6641021	965.087	720
45	6641021	965.087	730
45	6641021	965.087	740
45	6641021	965.087	750
45	6641021	965.087	760
45	6646701	965.382	770
45	6646701	965.382	780
45	6646701	965.382	790
45	6646701	965.382	800
45	6646701	965.382	810
45	6646701	965.382	820
45	6646701	965.382	830
45	6646701	965.382	840
45	6646701	965.382	850
45	6646701	965.382	860
45	6651662	965.593	870
45	6651662	965.593	880
45	6651662	965.593	890
45	6656476	965.994	900
45	6656476	965.994	910
45	6661634	966.595	920
45	6661634	966.595	930
45	6661634	966.595	940
45	6662728	966.7	950
45	6664993	966.9	960
45	6666529	967.1	970
45	6668248	967.3	980
45	6670396	967.5	980
45	6670409	967.5	990
45	6671919	967.7	1000
45	6673939	967.9	210
45	6675876	968.1	220
45	6677364	968.3	230
45	6679352	968.5	240
45	6680667	968.7	250
45	6682591	968.9	260
45	6684618	969.1	270
45	6686610	969.3	280
45	6688202	969.5	290
45	6689923	969.7	300
45	6691784	969.9	310
45	6693834	970.1	320
45	6695721	970.3	330
45	6697508	970.5	340
45	6699295	970.7	350
45	6701073	970.9	360
45	6702905	971.1	370
45	6704688	971.3	380
45	6706184	971.5	390
45	6710520	971.995	400
45	6710520	971.995	410
45	6711561	972.1	390
45	6713451	972.3	400
45	6715200	972.5	410
45	6717351	972.7	270
45	6719138	972.9	280
45	6720969	973.1	290
45	6725250	973.594	300
45	6725250	973.594	310
45	6726018	973.7	320
45	6727830	973.9	330
45	6729206	974.1	340
45	6734039	974.595	350
45	6734039	974.595	360
45	6735077	974.7	370
45	6737188	974.9	380
45	6738746	975.1	390
45	6740226	975.3	400
45	6742009	975.5	400
45	6742022	975.5	410
45	6745992	975.994	200
45	6745992	975.994	210
45	6747033	976.1	220
45	6749710	976.3	230
45	6751730	976.5	240
45	6753631	976.7	250
45	6755119	976.9	260
45	6756895	977.1	270
45	6759014	977.3	280
45	6760568	977.5	290
45	6762322	977.7	300
45	6764455	977.9	310
45	6766003	978.1	320
45	6767720	978.3	330
45	6769880	978.5	340
45	6771401	978.7	350
45	6773141	978.9	360
45	6774995	979.1	370
45	6777132	979.3	380
45	6778350	979.5	390
45	6780574	979.7	400
45	6782244	979.9	410
45	6784339	980.1	390
45	6786168	980.3	400
45	6787952	980.5	410
45	6791984	980.993	280
45	6791984	980.993	290
45	6792973	981.1	300
45	6797135	981.593	310
45	6797135	981.593	320
45	6797922	981.7	330
45	6799549	981.9	340
45	6801068	982.1	350
45	6802633	982.3	360
45	6804085	982.5	370
45	6805983	982.7	380
45	6808857	982.9	390
45	6814044	983.5	390
45	6814932	983.593	400
45	6814932	983.593	410
45	6817787	983.887	190
45	6817787	983.887	200
45	6818140	983.9	210
45	6820385	984.1	220
45	6822385	984.3	230
45	6824276	984.5	240
45	6826061	984.7	250
45	6827846	984.9	260
45	6829677	985.1	270
45	6831464	985.3	280
45	6835739	985.794	290
45	6835739	985.794	300
45	6836507	985.9	310
45	6838668	986.1	320
45	6840447	986.3	330
45	6844365	986.797	340
45	6848504	987.339	350
45	6848504	987.339	360
45	6848504	987.339	370
45	6848504	987.339	380
45	6850791	987.5	390
45	6852961	987.7	400
45	6854568	987.9	410
45	6855772	988.1	390
45	6858393	988.3	400
45	6863768	988.999	280
45	6867176	989.358	290
45	6869576	989.656	300
45	6869576	989.656	310
45	6869576	989.656	320
45	6872854	989.959	330
45	6875604	990.256	340
45	6875604	990.256	350
45	6878697	990.558	360
45	6881094	990.851	370
45	6881094	990.851	380
45	6881094	990.851	390
45	6881652	990.9	400
45	6884106	991.1	410
45	6885895	991.3	420
45	6887668	991.5	420
45	6887681	991.5	430
45	6889478	991.7	410
45	6891016	991.9	210
45	6892830	992.1	220
45	6894951	992.3	230
45	6896740	992.5	240
45	6898519	992.7	250
45	6900314	992.9	260
45	6904698	993.405	270
45	6904698	993.405	280
45	6905414	993.5	290
45	6907520	993.7	300
45	6909309	993.9	310
45	6911122	994.1	320
45	6912911	994.3	330
45	6914698	994.5	340
45	6916200	994.7	350
45	6917972	994.9	360
45	6920145	995.1	370
45	6921928	995.3	380
45	6923713	995.5	390
45	6925234	995.7	400
45	6927270	995.9	410
45	6928885	996.1	400
45	6930621	996.3	410
45	6932383	996.5	420
45	6934272	996.7	270
45	6936044	996.9	280
45	6937919	997.1	290
45	6939924	997.3	300
45	6941803	997.5	310
45	6943596	997.7	320
45	6945383	997.9	330
45	6946936	998.1	340
45	6948969	998.3	350
45	6950796	998.5	360
45	6952304	998.7	370
45	6953781	998.9	380
45	6955875	999.1	390
45	6957757	999.3	400
45	6958912	999.5	400
45	6958925	999.5	410
45	6960050	999.7	410
45	6961192	999.9	420
45	6962350	1000.1	430
45	6963469	1000.3	440
45	6968557	1000.793	450
45	6968557	1000.793	460
45	6969132	1000.9	470
45	6971184	1001.1	480
45	6972674	1001.3	490
45	6974098	1001.5	500
45	6975552	1001.7	510
45	6976986	1001.9	520
45	6978478	1002.1	530
45	6979910	1002.3	540
45	6983310	1002.897	550
45	6983310	1002.897	560
45	6983577	1002.9	570
45	6985718	1003.1	580
45	6987190	1003.3	590
45	6988345	1003.5	600
45	6989759	1003.7	610
45	6991256	1003.9	620
45	6992690	1004.1	390
45	6994505	1004.3	400
45	6995958	1004.5	410
45	6997407	1004.7	270
45	6998562	1004.9	280
45	7000024	1005.1	290
45	7001514	1005.3	300
45	7002891	1005.5	310
45	7004708	1005.7	320
45	7006146	1005.9	330
45	7007351	1006.1	340
45	7008628	1006.3	350
45	7009957	1006.5	360
45	7011678	1006.7	370
45	7015178	1007.198	380
45	7015178	1007.198	390
45	7016052	1007.3	400
45	7017848	1007.5	400
45	7017861	1007.5	410
45	7021251	1007.993	200
45	7021251	1007.993	210
45	7021939	1008.1	220
45	7023382	1008.3	230
45	7024471	1008.5	240
45	7025568	1008.7	250
45	7026372	1008.9	260
45	7028235	1010.4	270
45	7028235	1010.4	280
45	7028235	1010.4	290
45	7028235	1010.4	300
45	7028235	1010.4	310
45	7028235	1010.4	320
45	7028235	1010.4	330
45	7029768	1010.5	340
45	7031611	1010.7	350
45	7036879	1010.9	360
45	7038916	1011.1	370
45	7040021	1011.3	380
45	7041853	1011.672	390
45	7042017	1011.7	400
45	7043320	1011.9	410
45	7044451	1012.1	420
45	7045274	1012.3	430
45	7047415	1012.672	260
45	7047583	1012.7	270
45	7048878	1012.9	280
45	7050011	1013.1	290
45	7051116	1013.3	300
45	7052203	1013.5	310
45	7053308	1013.7	320
45	7054403	1013.9	330
45	7055544	1014.1	340
45	7056633	1014.3	350
45	7057732	1014.5	360
45	7058829	1014.7	370
45	7059928	1014.9	380
45	7061057	1015.1	390
45	7062162	1015.3	400
45	7063238	1015.5	400
45	7063250	1015.5	410
45	7064354	1015.7	410
45	7066705	1016.254	180
45	7068032	1016.478	190
45	7068032	1016.478	200
45	7070256	1016.863	210
45	7070256	1016.863	220
45	7070508	1016.9	230
45	7072215	1017.1	240
45	7073312	1017.3	250
45	7074405	1017.5	260
45	7075504	1017.7	270
45	7076324	1017.9	280
45	7077436	1018.1	290
45	7078831	1018.3	300
45	7079966	1018.5	310
45	7081065	1018.7	320
45	7082164	1018.9	330
45	7083297	1019.1	340
45	7084386	1019.3	350
45	7086851	1019.849	360
45	7086851	1019.849	370
45	7087213	1019.9	380
47	6555768	959.877	370
47	6556176	960.104	370
47	6556497	960.331	370
47	6556893	960.557	370
47	6557314	960.784	380
47	6559717	961.01	390
47	6562145	961.236	400
47	6563904	961.462	410
47	6565973	961.688	420
47	6568271	961.915	430
47	6572539	962.148	440
47	6578683	962.375	450
47	6578683	962.375	460
47	6584712	962.601	470
47	6589380	962.83	480
47	6594259	963.069	490
47	6597654	963.297	500
47	6597654	963.297	510
47	6597654	963.297	520
47	6597654	963.297	530
47	6597654	963.297	540
47	6597654	963.297	550
47	6597654	963.297	560
47	6597654	963.297	570
47	6597654	963.297	580
47	6597654	963.297	590
47	6597654	963.297	600
47	6597654	963.297	610
47	6597654	963.297	620
47	6597654	963.297	630
47	6597654	963.297	640
47	6605082	963.523	650
47	6605082	963.523	660
47	6605082	963.523	670
47	6605082	963.523	680
47	6605082	963.523	690
47	6605082	963.523	700
47	6605082	963.523	710
47	6605082	963.523	720
47	6612600	963.751	730
47	6612600	963.751	740
47	6618102	963.983	750
47	6618102	963.983	760
47	6618102	963.983	770
47	6618102	963.983	780
47	6618102	963.983	790
47	6618102	963.983	800
47	6618102	963.983	810
47	6621128	964.1	820
47	6626116	964.3	830
47	6631397	964.5	840
47	6636590	964.7	850
47	6638995	964.9	860
47	6642525	965.1	870
47	6646042	965.3	880
47	6649217	965.5	890
47	6653350	965.7	900
47	6655620	965.9	910
47	6657167	966.1	920
47	6658602	966.3	930
47	6660433	966.5	940
47	6662730	966.7	950
47	6664995	966.9	960
47	6666531	967.1	970
47	6668250	967.3	980
47	6670411	967.5	990
47	6671906	967.7	990
47	6671921	967.7	1000
47	6673941	967.9	210
47	6675878	968.1	220
47	6677366	968.3	230
47	6679354	968.5	240
47	6680669	968.7	250
47	6682593	968.9	260
47	6684620	969.1	270
47	6686612	969.3	280
47	6688204	969.5	290
47	6689925	969.7	300
47	6691786	969.9	310
47	6693836	970.1	320
47	6695723	970.3	330
47	6697510	970.5	340
47	6699297	970.7	350
47	6701075	970.9	360
47	6702907	971.1	370
47	6704690	971.3	380
47	6706186	971.5	390
47	6710003	971.931	400
47	6710003	971.931	410
47	6711563	972.1	390
47	6713453	972.3	400
47	6715202	972.5	410
47	6717353	972.7	270
47	6719140	972.9	280
47	6720971	973.1	290
47	6722760	973.3	300
47	6724226	973.5	310
47	6726020	973.7	320
47	6729712	974.128	330
47	6729712	974.128	340
47	6731128	974.3	350
47	6732821	974.5	360
47	6735079	974.7	370
47	6737190	974.9	380
47	6740645	975.326	390
47	6740645	975.326	400
47	6743242	975.7	400
47	6743739	975.737	410
47	6743739	975.737	420
47	6747784	976.128	210
47	6750489	976.355	220
47	6750489	976.355	230
47	6751732	976.5	240
47	6753633	976.7	250
47	6757557	977.131	260
47	6757557	977.131	270
47	6759016	977.3	280
47	6760570	977.5	290
47	6762324	977.7	300
47	6764457	977.9	310
47	6766005	978.1	320
47	6767722	978.3	330
47	6771906	978.726	340
47	6771906	978.726	350
47	6773143	978.9	360
47	6774997	979.1	370
47	6778833	979.526	380
47	6778833	979.526	390
47	6782890	979.928	400
47	6782890	979.928	410
47	6784341	980.1	420
47	6786170	980.3	400
47	6787954	980.5	410
47	6789754	980.7	280
47	6790930	980.9	290
47	6792975	981.1	300
47	6794899	981.3	310
47	6796346	981.5	320
47	6797924	981.7	330
47	6799551	981.9	340
47	6801070	982.1	350
47	6802635	982.3	360
47	6804087	982.5	370
47	6805985	982.7	380
47	6808859	982.9	390
47	6811554	983.1	400
47	6812740	983.3	410
47	6814059	983.5	420
47	6815727	983.7	420
47	6815742	983.7	430
47	6818142	983.9	210
47	6820387	984.1	220
47	6822387	984.3	230
47	6824278	984.5	240
47	6826063	984.7	250
47	6827848	984.9	260
47	6829679	985.1	270
47	6831466	985.3	280
47	6833249	985.5	290
47	6834713	985.7	300
47	6836509	985.9	310
47	6838670	986.1	320
47	6840449	986.3	330
47	6842238	986.5	340
47	6843694	986.7	350
47	6844769	986.9	360
47	6846104	987.1	370
47	6847957	987.3	380
47	6850793	987.5	390
47	6852963	987.7	400
47	6856314	988.129	380
47	6856314	988.129	390
47	6858395	988.3	400
47	6860039	988.5	410
47	6861174	988.7	290
47	6862861	988.9	300
47	6864418	989.1	310
47	6866327	989.3	320
47	6868390	989.5	330
47	6870022	989.7	340
47	6872036	989.9	350
47	6874211	990.1	360
47	6876019	990.3	370
47	6877923	990.5	380
47	6879692	990.7	390
47	6881654	990.9	400
47	6884108	991.1	410
47	6885897	991.3	420
47	6887683	991.5	430
47	6889465	991.7	400
47	6889480	991.7	410
47	6891018	991.9	210
47	6892832	992.1	220
47	6894953	992.3	230
47	6896742	992.5	240
47	6898521	992.7	250
47	6900316	992.9	260
47	6902141	993.1	270
47	6903615	993.3	280
47	6905416	993.5	290
47	6907522	993.7	300
47	6909311	993.9	310
47	6911124	994.1	320
47	6912913	994.3	330
47	6914700	994.5	340
47	6916202	994.7	350
47	6917974	994.9	360
47	6920147	995.1	370
47	6921930	995.3	380
47	6925864	995.728	390
47	6925864	995.728	400
47	6929394	996.127	390
47	6929394	996.127	400
47	6930623	996.3	410
47	6932385	996.5	420
47	6934274	996.7	270
47	6936046	996.9	280
47	6937921	997.1	290
47	6939926	997.3	300
47	6941805	997.5	310
47	6943598	997.7	320
47	6947553	998.126	330
47	6947553	998.126	340
47	6948971	998.3	350
47	6950798	998.5	360
47	6952306	998.7	370
47	6953783	998.9	380
47	6955877	999.1	390
47	6957758	999.3	400
47	6958926	999.5	410
47	6960037	999.7	400
47	6960051	999.7	410
47	6961193	999.9	420
47	6962351	1000.1	430
47	6963470	1000.3	440
47	6966139	1000.5	450
47	6969796	1000.932	460
47	6969796	1000.932	470
47	6971185	1001.1	480
47	6972675	1001.3	490
47	6974099	1001.5	500
47	6975553	1001.7	510
47	6976987	1001.9	520
47	6978479	1002.1	530
47	6979911	1002.3	540
47	6981351	1002.5	550
47	6984072	1002.929	560
47	6984072	1002.929	570
47	6985719	1003.1	580
47	6987191	1003.3	590
47	6988346	1003.5	600
47	6989760	1003.7	610
47	6991257	1003.9	620
47	6992691	1004.1	390
47	6994506	1004.3	400
47	6995959	1004.5	410
47	6997408	1004.7	270
47	6998563	1004.9	280
47	7000025	1005.1	290
47	7001515	1005.3	300
47	7002892	1005.5	310
47	7004709	1005.7	320
47	7006147	1005.9	330
47	7007352	1006.1	340
47	7008629	1006.3	350
47	7009958	1006.5	360
47	7011679	1006.7	370
47	7014764	1007.141	380
47	7014764	1007.141	390
47	7016053	1007.3	400
47	7017862	1007.5	410
47	7019304	1007.7	400
47	7019318	1007.7	410
47	7020450	1007.9	210
47	7021940	1008.1	220
47	7023383	1008.3	230
47	7024472	1008.5	240
47	7025569	1008.7	250
47	7026373	1008.9	260
47	7028236	1010.4	270
47	7028236	1010.4	280
47	7031798	1010.723	290
47	7031798	1010.723	300
47	7031798	1010.723	310
47	7031798	1010.723	320
47	7031798	1010.723	330
47	7031798	1010.723	340
47	7031798	1010.723	350
47	7036880	1010.9	360
47	7038917	1011.1	370
47	7040022	1011.3	380
47	7041125	1011.5	390
47	7042018	1011.7	400
47	7043321	1011.9	410
47	7044452	1012.1	420
47	7045275	1012.3	430
47	7046577	1012.5	440
47	7047584	1012.7	270
47	7048879	1012.9	280
47	7050012	1013.1	290
47	7051117	1013.3	300
47	7052204	1013.5	310
47	7053309	1013.7	320
47	7054404	1013.9	330
47	7055545	1014.1	340
47	7056634	1014.3	350
47	7057733	1014.5	360
47	7058830	1014.7	370
47	7059929	1014.9	380
47	7061058	1015.1	390
47	7062163	1015.3	400
47	7063251	1015.5	410
47	7064342	1015.7	400
47	7065270	1015.923	170
47	7065270	1015.923	180
47	7065981	1016.1	190
47	7066884	1016.3	200
47	7068285	1016.5	210
47	7069360	1016.7	220
47	7070509	1016.9	230
47	7072216	1017.1	240
47	7073313	1017.3	250
47	7074406	1017.5	260
47	7076633	1017.921	270
47	7077819	1018.142	280
47	7077819	1018.142	290
47	7078832	1018.3	300
47	7079967	1018.5	310
47	7081066	1018.7	320
47	7082165	1018.9	330
47	7083298	1019.1	340
47	7084387	1019.3	350
47	7085478	1019.5	360
47	7085986	1019.7	370
47	7087214	1019.9	380

