version 2
run FastSMR-1-20181114-02:22:35-9772
attr configname FastSMR
attr datetime 20181114-02:22:35
attr experiment FastSMR
attr inifile omnetpp.ini
attr iterationvars "$GCCycleForLatency=2000, $GC=true"
attr iterationvarsf GCCycleForLatency=2000,GC=true-
attr measurement "$GCCycleForLatency=2000, $GC=true"
attr network abstract.FastSMRModel
attr processid 9772
attr repetition 0
attr replication #0
attr resultdir results
attr runnumber 1
attr seedset 1
itervar GC true
itervar GCCycleForLatency 2000
param FastSMRModel.client_num 10
param FastSMRModel.logical_computer "\"client[0]\""
param **.globalParameters.max_distance 20000000m
param **.globalParameters.fix_latency 100ms
param **.globalParameters.latency_gen_mode 0
param **.globalStatistics.cool_down 10s
param **.underlayConfigurator.lcType "\"abstract.LogicComputer\""
param **.underlayConfigurator.lcName "\"logicComputer\""
param **.underlayConfigurator.nodeType "\"hosts.Node\""
param **.underlayConfigurator.nodeName "\"node\""
param **.underlayConfigurator.clientType "\"hosts.Client\""
param **.underlayConfigurator.clientName "\"client\""
param **.client[*].ctrl.initJoinTime 3000ms
param **.client[*].ctrl.loadCycle 500ms
param **.client[*].ctrl.discoveryCycle 1000ms
param **.client[*].ctrl.deviate false
param **.node[*].IPInterface "\"IPAddress\""
param **.node[*].HBcycle 1000ms
param **.node[*].ctrl.roundCycle 200ms
param **.node[*].ctrl.cycleStart 4000ms
param **.node[*].ctrl.GCCycle 2000ms
param **.node[*].ctrl.GC true
param **.rendezvous.ctrl.cycle 1000ms
param **.rendezvous.ctrl.starttime 5000ms
param **.rendezvous.replicaNumPolicyModule "\"replication\""
param **.rendezvous.replication.threshold 3
param **.rendezvous.replication.max_replica 5
param **.clock.err_mean 74ms
param **.clock.err_std 175ms
param **.pktLossRate 0.01
param **.Copt 200000000mps
param **.BW 1.04858e6bps
param **.MTU 12144b
param **.jitter_mu 1
param **.jitter_sigma 0.5
param **.Dmin 50ms
param **.jitter 50ms
param **.churnGeneratorModule "\"churnGenerator\""
param **.churnGenerator.stable_fraction 0.2
param **.churnGenerator.stable_mean 9000000ms
param **.churnGenerator.sessionLenShape 0.38
param **.churnGenerator.sessionLenScale 42.4
param **.churnGenerator.sessionLenMin 10s
param **.churnGenerator.sessionLength 30min
param **.churnGenerator.scan_cycle 100ms
param **.churnGenerator.life_span_min 10s
param **.churnGenerator.life_span_max 200s
param **.coordinator.locXMax 750
param **.coordinator.locYMax 550
param **.coordinator.locXMin 200
param **.coordinator.locYMin 50
param **.coordinator.LCXMax 1050
param **.coordinator.LCYMax 550
param **.coordinator.LCXMin 850
param **.coordinator.LCYMin 50
param **.coordinator.percept_radius 1000

vector 0 FastSMRModel.client[3] IndividualInteractionLatency:vector ETV
attr source latency
attr title "Individual Interaction Latency, vector"
vector 1 FastSMRModel.client[2] IndividualInteractionLatency:vector ETV
attr source latency
attr title "Individual Interaction Latency, vector"
vector 2 FastSMRModel.logicComputer[0].node[1] QdLengthVector:vector ETV
attr source QdLength
attr title "Qd Length, vector"
vector 3 FastSMRModel.logicComputer[0].node[2] QdLengthVector:vector ETV
attr source QdLength
attr title "Qd Length, vector"
vector 4 FastSMRModel.logicComputer[0].node[4] QdLengthVector:vector ETV
attr source QdLength
attr title "Qd Length, vector"
vector 5 FastSMRModel.client[5] IndividualInteractionLatency:vector ETV
attr source latency
attr title "Individual Interaction Latency, vector"
vector 6 FastSMRModel.client[1] IndividualInteractionLatency:vector ETV
attr source latency
attr title "Individual Interaction Latency, vector"
vector 7 FastSMRModel.client[6] IndividualInteractionLatency:vector ETV
attr source latency
attr title "Individual Interaction Latency, vector"
vector 8 FastSMRModel.client[8] IndividualInteractionLatency:vector ETV
attr source latency
attr title "Individual Interaction Latency, vector"
vector 9 FastSMRModel.client[0] IndividualInteractionLatency:vector ETV
attr source latency
attr title "Individual Interaction Latency, vector"
vector 10 FastSMRModel.client[9] IndividualInteractionLatency:vector ETV
attr source latency
attr title "Individual Interaction Latency, vector"
vector 11 FastSMRModel.client[4] IndividualInteractionLatency:vector ETV
attr source latency
attr title "Individual Interaction Latency, vector"
vector 12 FastSMRModel.client[7] IndividualInteractionLatency:vector ETV
attr source latency
attr title "Individual Interaction Latency, vector"
vector 13 FastSMRModel.logicComputer[0].node[3] QdLengthVector:vector ETV
attr source QdLength
attr title "Qd Length, vector"
vector 14 FastSMRModel.logicComputer[0].node[0] QdLengthVector:vector ETV
attr source QdLength
attr title "Qd Length, vector"
13	7199	10.322	20
13	10841	10.741	30
13	10841	10.741	40
13	10841	10.741	50
13	10841	10.741	60
13	12524	10.9	70
13	14804	11.1	80
13	18110	11.5	80
13	20307	11.719	10
13	20307	11.719	20
13	20307	11.719	30
13	21926	11.9	40
13	23908	12.1	50
13	25683	12.3	60
13	27474	12.5	70
13	29261	12.7	80
13	30897	12.9	90
13	32853	13.1	100
13	34670	13.3	110
13	36176	13.5	110
13	36191	13.5	120
13	37711	13.7	120
13	39741	13.9	40
13	41222	14.1	50
13	43074	14.3	60
13	44263	14.5	70
13	51368	15.199	80
13	51368	15.199	90
13	51368	15.199	100
13	52421	15.3	110
13	54400	15.5	110
13	54415	15.5	120
13	56477	15.7	130
13	61873	16.324	40
13	61873	16.324	50
13	61873	16.324	60
13	63609	16.5	70
13	65421	16.7	80
13	67345	16.9	90
13	69198	17.1	100
13	72482	17.5	100
13	74680	17.721	10
13	74680	17.721	20
13	74680	17.721	30
13	76296	17.9	40
13	78274	18.1	50
13	80061	18.3	60
13	81840	18.5	70
13	83629	18.7	80
13	85135	18.9	90
13	86647	19.1	100
13	88392	19.3	110
13	89650	19.5	110
13	89665	19.5	120
13	92260	19.7	120
13	94535	19.9	50
13	96368	20.1	60
13	98153	20.3	70
13	99671	20.5	80
13	101141	20.7	90
13	102606	20.9	100
13	105175	21.1	110
13	108669	21.5	110
13	110458	21.721	10
13	110458	21.721	20
13	110458	21.721	30
13	112210	21.9	40
13	114479	22.1	50
13	116260	22.3	60
13	117902	22.5	70
13	119659	22.7	80
13	121345	22.9	90
13	123131	23.1	100
13	124687	23.3	110
13	126932	23.5	110
13	130815	23.921	10
13	134077	24.342	20
13	134077	24.342	30
13	134077	24.342	40
13	134077	24.342	50
13	135942	24.5	60
13	138049	24.7	70
13	143961	25.419	80
13	143961	25.419	90
13	144604	25.5	90
13	147323	25.839	10
13	147323	25.839	20
13	147323	25.839	30
13	147958	25.9	40
13	150719	26.1	50
13	152614	26.3	60
13	154403	26.5	70
13	156174	26.7	80
13	161621	27.318	90
13	161621	27.318	100
13	161621	27.318	110
13	163231	27.5	110
13	163246	27.5	120
13	165252	27.7	120
13	166774	27.9	30
13	168800	28.1	40
13	170109	28.3	50
13	171267	28.5	60
13	172883	28.7	70
13	173964	28.9	80
13	176475	29.1	90
13	178561	29.3	100
13	180964	29.5	100
13	180979	29.5	110
13	183287	29.7	120
13	185205	29.9	30
13	190747	30.525	40
13	190747	30.525	50
13	190747	30.525	60
13	192296	30.7	70
13	194089	30.9	80
13	196065	31.1	90
13	198180	31.5	90
13	201399	31.725	20
13	201399	31.725	30
13	201399	31.725	40
13	203208	31.9	50
13	205041	32.1	60
13	206973	32.3	70
13	208778	32.5	80
13	210559	32.7	90
13	212352	32.9	100
13	213902	33.1	110
13	215898	33.3	120
13	217600	33.5	120
13	217615	33.5	130
13	219603	33.7	140
13	220990	33.9	30
13	223177	34.1	40
13	224507	34.3	50
13	225659	34.5	60
13	227759	34.7	70
13	229811	34.9	80
13	232294	35.1	90
13	233826	35.3	100
13	235814	35.5	100
13	239186	35.921	10
13	239186	35.921	20
13	239186	35.921	30
13	241183	36.1	40
13	242650	36.3	50
13	243651	36.5	60
13	245913	36.7	70
13	248131	36.9	80
13	250459	37.1	90
13	252252	37.3	100
13	253876	37.5	100
13	253891	37.5	110
13	255883	37.7	120
13	257537	37.9	30
13	259511	38.1	40
13	264674	38.723	50
13	264674	38.723	60
13	264674	38.723	70
13	266376	38.9	80
13	268524	39.1	90
13	269781	39.3	100
13	270929	39.5	100
13	270944	39.5	110
13	273597	39.7	120
13	275816	39.9	50
13	277643	40.1	60
13	279424	40.3	70
13	281215	40.5	80
13	286544	41.12	90
13	286544	41.12	100
13	286544	41.12	110
13	288141	41.3	120
13	290200	41.5	120
13	290215	41.5	130
13	291817	41.7	140
13	293805	41.9	30
13	295565	42.1	40
13	297338	42.3	50
13	299278	42.5	60
13	306356	43.336	70
13	306356	43.336	80
13	306356	43.336	90
13	307818	43.5	90
13	310418	43.755	10
13	310418	43.755	20
13	310418	43.755	30
13	311764	43.9	40
13	313695	44.1	50
13	315340	44.3	60
13	317215	44.5	70
13	322391	45.12	80
13	324981	45.5	80
13	326020	45.547	80
13	328084	45.751	20
13	328084	45.751	30
13	328084	45.751	40
13	328084	45.751	50
13	329587	45.9	60
13	331977	46.1	70
13	333581	46.3	80
13	334900	46.5	90
13	337290	46.7	100
13	339269	46.9	110
13	341102	47.1	120
13	342604	47.3	130
13	344334	47.5	130
13	344349	47.5	140
13	346368	47.7	140
13	348361	47.9	40
13	353806	48.521	50
13	357199	48.943	60
13	357199	48.943	70
13	357199	48.943	80
13	357199	48.943	90
13	362152	49.5	90
13	362859	49.521	100
13	362859	49.521	110
13	362859	49.521	120
13	364586	49.7	120
13	366524	49.9	50
13	368363	50.1	60
13	370150	50.3	70
13	371935	50.5	80
13	373716	50.7	90
13	375505	50.9	100
13	377330	51.1	110
13	378559	51.3	120
13	379697	51.5	120
13	386180	52.155	30
13	386180	52.155	40
13	386180	52.155	50
13	386180	52.155	60
13	387616	52.3	70
13	389978	52.5	80
13	391684	52.7	90
13	393610	52.9	100
13	395467	53.1	110
13	397254	53.3	120
13	399023	53.5	120
13	399038	53.5	130
13	400893	53.7	140
13	402413	53.9	30
13	404443	54.1	40
13	406310	54.3	50
13	408099	54.5	60
13	409607	54.7	70
13	410920	54.9	80
13	416544	55.5	80
13	417111	55.52	90
13	417111	55.52	100
13	417111	55.52	110
13	418598	55.7	120
13	420225	55.9	50
13	422530	56.1	60
13	424479	56.3	70
13	425989	56.5	80
13	427979	56.7	90
13	429705	56.9	100
13	431671	57.1	110
13	434545	57.5	110
13	437180	57.728	10
13	437180	57.728	20
13	437180	57.728	30
13	438783	57.9	40
13	440512	58.1	50
13	442506	58.3	60
13	443827	58.5	70
13	444967	58.7	80
13	447574	58.9	90
13	449811	59.1	100
13	452782	59.5	100
13	454910	59.719	10
13	458454	60.139	20
13	458454	60.139	30
13	458454	60.139	40
13	458454	60.139	50
13	460253	60.3	60
13	462263	60.5	70
13	463501	60.7	80
13	464933	60.9	90
13	466446	61.1	100
13	468854	61.3	110
13	471022	61.5	110
13	471037	61.5	120
13	473396	61.7	120
13	475335	61.9	30
13	477190	62.1	40
13	482310	62.719	50
13	482310	62.719	60
13	482310	62.719	70
13	484034	62.9	80
13	486173	63.1	90
13	487719	63.3	100
13	489532	63.5	100
13	489547	63.5	110
13	490801	63.7	120
13	491665	63.9	30
13	494472	64.1	40
13	496675	64.3	50
13	498659	64.5	60
13	500121	64.7	70
13	501317	64.9	80
13	503896	65.1	90
13	506008	65.3	100
13	507908	65.5	100
13	507928	65.5	110
13	509531	65.7	120
13	511013	65.9	30
13	518504	66.738	40
13	518504	66.738	50
13	518504	66.738	60
13	518504	66.738	70
13	520372	66.9	80
13	522507	67.1	90
13	524296	67.3	100
13	525918	67.5	100
13	525933	67.5	110
13	527935	67.7	120
13	529740	67.9	30
13	531290	68.1	40
13	532756	68.3	50
13	535015	68.5	60
13	541910	69.338	70
13	541910	69.338	80
13	541910	69.338	90
13	541910	69.338	100
13	543712	69.5	100
13	543727	69.5	110
13	546093	69.7	120
13	547749	69.9	30
13	549723	70.1	40
13	551528	70.3	50
13	553307	70.5	60
13	554943	70.7	70
13	556592	70.9	80
13	558656	71.1	90
13	560527	71.3	100
13	562302	71.5	100
13	562317	71.5	110
13	564170	71.7	120
13	565957	71.9	30
2	5475	10.1	30
2	6675	10.3	40
2	8615	10.5	50
2	10243	10.7	60
2	12522	10.9	70
2	14802	11.1	80
2	16609	11.3	90
2	18108	11.5	90
2	18123	11.5	100
2	19668	11.7	30
2	21924	11.9	40
2	23906	12.1	50
2	25681	12.3	60
2	27472	12.5	70
2	29259	12.7	80
2	30895	12.9	90
2	32851	13.1	100
2	34668	13.3	110
2	36174	13.5	110
2	36189	13.5	120
2	37709	13.7	30
2	39739	13.9	40
2	41220	14.1	50
2	43072	14.3	60
2	44261	14.5	70
2	46639	14.7	80
2	49975	15.085	90
2	50246	15.1	100
2	52419	15.3	110
2	54398	15.5	110
2	54413	15.5	120
2	56475	15.7	30
2	58346	15.9	40
2	61031	16.283	50
2	61221	16.3	60
2	63607	16.5	70
2	65419	16.7	80
2	67343	16.9	90
2	69196	17.1	100
2	70973	17.3	110
2	72480	17.5	110
2	72495	17.5	120
2	74032	17.7	30
2	76294	17.9	40
2	78272	18.1	50
2	80059	18.3	60
2	81838	18.5	70
2	83627	18.7	80
2	85133	18.9	90
2	86645	19.1	100
2	88390	19.3	110
2	89648	19.5	110
2	89663	19.5	120
2	92258	19.7	40
2	94533	19.9	50
2	96366	20.1	60
2	98151	20.3	70
2	99669	20.5	80
2	101139	20.7	90
2	102604	20.9	100
2	105173	21.1	110
2	107152	21.3	120
2	108667	21.5	120
2	108682	21.5	130
2	109948	21.7	30
2	112208	21.9	40
2	114477	22.1	50
2	117686	22.484	60
2	119436	22.683	70
2	119657	22.7	80
2	121343	22.9	90
2	123129	23.1	100
2	124685	23.3	110
2	126930	23.5	110
2	126945	23.5	120
2	128530	23.7	20
2	130157	23.9	30
2	133164	24.281	40
2	133356	24.3	50
2	135940	24.5	60
2	138047	24.7	70
2	139830	24.9	80
2	141391	25.1	90
2	142855	25.3	100
2	144602	25.5	100
2	144617	25.5	110
2	147766	25.882	30
2	147956	25.9	40
2	150717	26.1	50
2	152612	26.3	60
2	154401	26.5	70
2	156172	26.7	80
2	157971	26.9	90
2	159520	27.1	100
2	160997	27.3	110
2	163229	27.5	110
2	163244	27.5	120
2	165250	27.7	20
2	166772	27.9	30
2	172214	28.589	40
2	175215	29.003	50
2	175215	29.003	60
2	175215	29.003	70
2	175215	29.003	80
2	176473	29.1	90
2	178559	29.3	100
2	180962	29.5	100
2	183065	29.681	110
2	183285	29.7	20
2	185203	29.9	30
2	187066	30.1	40
2	188422	30.3	50
2	190034	30.5	60
2	193873	30.881	70
2	194087	30.9	80
2	198178	31.5	80
2	199306	31.59	90
2	199306	31.59	100
2	199306	31.59	110
2	200406	31.7	40
2	204829	32.082	50
2	205039	32.1	60
2	206971	32.3	70
2	208776	32.5	80
2	210557	32.7	90
2	212350	32.9	100
2	213900	33.1	110
2	215896	33.3	120
2	217598	33.5	120
2	217613	33.5	130
2	219601	33.7	20
2	220988	33.9	30
2	223175	34.1	40
2	224505	34.3	50
2	225657	34.5	60
2	227757	34.7	70
2	229809	34.9	80
2	232292	35.1	90
2	233824	35.3	100
2	235812	35.5	100
2	235827	35.5	110
2	237484	35.7	20
2	238688	35.9	30
2	241181	36.1	40
2	242648	36.3	50
2	243649	36.5	60
2	245911	36.7	70
2	248129	36.9	80
2	250457	37.1	90
2	252250	37.3	100
2	253874	37.5	100
2	253889	37.5	110
2	255881	37.7	20
2	257535	37.9	30
2	259509	38.1	40
2	261318	38.3	50
2	263951	38.681	60
2	266106	38.881	70
2	266374	38.9	80
2	268522	39.1	90
2	269779	39.3	100
2	270927	39.5	100
2	270942	39.5	110
2	273595	39.7	40
2	275814	39.9	50
2	277641	40.1	60
2	279422	40.3	70
2	281213	40.5	80
2	282843	40.7	90
2	284499	40.9	100
2	286036	41.1	110
2	288139	41.3	120
2	290198	41.5	120
2	290213	41.5	130
2	291815	41.7	20
2	295359	42.085	30
2	297163	42.294	40
2	297336	42.3	50
2	300736	42.684	60
2	300948	42.7	70
2	302324	42.9	80
2	303550	43.1	90
2	305485	43.3	100
2	307816	43.5	100
2	307831	43.5	110
2	309622	43.7	30
2	313483	44.082	40
2	313693	44.1	50
2	315338	44.3	60
2	317213	44.5	70
2	319065	44.7	80
2	320748	44.9	90
2	322004	45.1	100
2	323679	45.3	110
2	324979	45.5	110
2	324994	45.5	120
2	327235	45.7	50
2	329585	45.9	60
2	331975	46.1	70
2	334724	46.481	80
2	334898	46.5	90
2	337288	46.7	100
2	339267	46.9	110
2	341100	47.1	120
2	342602	47.3	130
2	344332	47.5	130
2	344347	47.5	140
2	346366	47.7	30
2	348359	47.9	40
2	350186	48.1	50
2	351693	48.3	60
2	353164	48.5	70
2	354907	48.7	80
2	356456	48.9	90
2	358911	49.1	100
2	360473	49.3	110
2	362150	49.5	110
2	362165	49.5	120
2	364584	49.7	40
2	366522	49.9	50
2	368361	50.1	60
2	370148	50.3	70
2	371933	50.5	80
2	373714	50.7	90
2	375503	50.9	100
2	379695	51.5	100
2	380700	51.582	110
2	380700	51.582	120
2	380700	51.582	130
2	381796	51.7	40
2	383401	51.9	50
2	385326	52.1	60
2	387614	52.3	70
2	391472	52.682	80
2	391682	52.7	90
2	393608	52.9	100
2	395465	53.1	110
2	397252	53.3	120
2	399021	53.5	120
2	399036	53.5	130
2	400891	53.7	20
2	402411	53.9	30
2	404441	54.1	40
2	406308	54.3	50
2	408097	54.5	60
2	409605	54.7	70
2	410918	54.9	80
2	413213	55.1	90
2	415064	55.3	100
2	416542	55.5	100
2	416557	55.5	110
2	418596	55.7	40
2	420223	55.9	50
2	422528	56.1	60
2	424477	56.3	70
2	425987	56.5	80
2	427977	56.7	90
2	429703	56.9	100
2	431669	57.1	110
2	433466	57.3	120
2	434543	57.5	120
2	434558	57.5	130
2	436457	57.7	30
2	438781	57.9	40
2	440510	58.1	50
2	442504	58.3	60
2	443825	58.5	70
2	444965	58.7	80
2	447572	58.9	90
2	451239	59.284	100
2	452602	59.488	110
2	452780	59.5	110
2	452796	59.5	120
2	454350	59.7	30
2	455839	59.9	40
2	459919	60.284	50
2	460251	60.3	60
2	462261	60.5	70
2	463499	60.7	80
2	464931	60.9	90
2	466444	61.1	100
2	468852	61.3	110
2	471020	61.5	110
2	473121	61.682	10
2	473394	61.7	20
2	475333	61.9	30
2	477188	62.1	40
2	478971	62.3	50
2	480478	62.5	60
2	483762	62.884	70
2	484032	62.9	80
2	486171	63.1	90
2	489258	63.484	100
2	489530	63.5	100
2	489545	63.5	110
2	490799	63.7	20
2	491663	63.9	30
2	494470	64.1	40
2	498373	64.486	50
2	502546	64.982	60
2	502546	64.982	70
2	502546	64.982	80
2	505792	65.285	90
2	506006	65.3	100
2	507906	65.5	100
2	507926	65.5	110
2	509529	65.7	20
2	511011	65.9	30
2	513300	66.1	40
2	514701	66.3	50
2	515860	66.5	60
2	517643	66.7	70
2	520370	66.9	80
2	522505	67.1	90
2	524294	67.3	100
2	525916	67.5	100
2	525931	67.5	110
2	527933	67.7	20
2	529738	67.9	30
2	531288	68.1	40
2	532754	68.3	50
2	535013	68.5	60
2	536683	68.7	70
2	539102	69.087	80
2	539254	69.1	90
2	541048	69.3	100
2	543710	69.5	100
2	543725	69.5	110
2	547537	69.881	20
2	547747	69.9	30
2	549721	70.1	40
2	551526	70.3	50
2	553305	70.5	60
2	554941	70.7	70
2	556590	70.9	80
2	558654	71.1	90
2	560525	71.3	100
2	562300	71.5	100
2	562315	71.5	110
2	564168	71.7	20
2	565955	71.9	30
2	567788	72.1	40
2	570382	72.481	50
2	571853	72.685	60
2	572065	72.7	70
2	573665	72.9	80
2	574900	73.1	90
2	576016	73.3	100
2	577134	73.5	100
2	577149	73.5	110
2	578964	73.7	50
2	581018	73.9	60
2	582504	74.1	70
2	583950	74.3	80
2	585390	74.5	90
2	586830	74.7	100
2	588268	74.9	110
2	589758	75.1	120
2	591198	75.3	130
2	592622	75.5	130
2	592636	75.5	140
2	593845	75.7	20
2	595238	75.9	30
2	596844	76.1	40
2	598252	76.3	50
2	599907	76.5	60
2	601443	76.7	70
2	602887	76.9	80
2	604373	77.1	90
2	605811	77.3	100
2	607241	77.5	100
2	607255	77.5	110
2	608739	77.7	20
2	610177	77.9	30
2	612766	78.282	40
2	612956	78.3	50
2	614523	78.5	60
2	615720	78.7	70
2	617367	78.9	80
2	618941	79.1	90
2	620375	79.3	100
2	621807	79.5	100
2	621821	79.5	110
2	624398	79.882	20
2	624586	79.9	30
2	625944	80.1	40
2	627360	80.3	50
2	629105	80.5	60
2	630597	80.7	70
2	632947	81.086	80
2	633119	81.1	90
2	634982	81.3	100
2	636451	81.5	100
2	636465	81.5	110
2	639048	81.884	20
2	639238	81.9	30
2	640857	82.1	40
2	642327	82.3	50
2	644862	82.682	60
2	645054	82.7	70
2	646627	82.9	80
2	648137	83.1	90
2	649575	83.3	100
2	651009	83.5	100
2	651023	83.5	110
2	653608	83.888	20
2	653796	83.9	30
2	655403	84.1	40
2	656881	84.3	50
2	658892	84.682	60
2	660515	84.883	70
2	660759	84.9	80
2	662751	85.1	90
2	664060	85.3	100
2	665645	85.5	100
2	665659	85.5	110
2	668254	85.885	20
2	668444	85.9	30
2	670065	86.1	40
2	671537	86.3	50
2	672695	86.5	60
2	674072	86.7	70
2	675820	86.9	80
2	677386	87.1	90
2	678560	87.3	100
2	680033	87.5	100
2	680047	87.5	110
2	681788	87.7	20
2	683250	87.9	30
2	684738	88.1	40
2	686176	88.3	50
2	687614	88.5	60
2	689050	88.7	70
2	690486	88.9	80
2	691980	89.1	90
2	693420	89.3	100
2	694852	89.5	100
2	694866	89.5	110
2	696074	89.7	20
2	697713	89.9	30
2	699303	90.1	40
2	701569	90.485	50
2	701757	90.5	60
2	703542	90.7	70
2	705091	90.9	80
2	706575	91.1	90
2	707589	91.3	100
2	709359	91.5	100
2	710626	91.681	110
2	710818	91.7	20
2	712407	91.9	30
2	713903	92.1	40
2	715078	92.3	50
2	717902	92.686	60
2	718094	92.7	70
2	719654	92.9	80
2	721181	93.1	90
2	722625	93.3	100
2	724055	93.5	100
2	724069	93.5	110
2	725549	93.7	20
2	726985	93.9	30
2	728473	94.1	40
2	729915	94.3	50
2	731355	94.5	60
2	732793	94.7	70
2	734225	94.9	80
2	735719	95.1	90
2	737157	95.3	100
2	738593	95.5	100
2	738607	95.5	110
2	740089	95.7	20
2	741527	95.9	30
2	743023	96.1	40
2	744459	96.3	50
2	745897	96.5	60
2	747339	96.7	70
2	748779	96.9	80
2	751356	97.286	90
2	751548	97.3	100
2	753097	97.5	100
2	753116	97.5	110
2	754639	97.7	20
2	756079	97.9	30
2	757283	98.1	40
2	758484	98.3	50
2	760403	98.5	60
2	761954	98.7	70
2	763117	98.9	80
2	764562	99.1	90
2	766156	99.3	100
2	767794	99.5	100
2	767808	99.5	110
2	769290	99.7	20
2	770736	99.9	30
2	772222	100.1	40
2	774775	100.49	50
2	774947	100.5	60
2	776508	100.7	70
2	777994	100.9	80
2	779478	101.1	90
2	780916	101.3	100
2	781793	101.5	100
2	781807	101.5	110
2	783614	101.7	30
2	785318	101.9	40
2	786804	102.1	50
2	788242	102.3	60
2	789678	102.5	70
2	791126	102.7	80
2	792564	102.9	90
2	793775	103.1	100
2	795144	103.3	110
2	796867	103.5	110
2	796881	103.5	120
2	798463	103.7	20
2	799913	103.9	30
2	801397	104.1	40
2	802839	104.3	50
2	804271	104.5	60
2	806772	104.882	70
2	806982	104.9	80
2	808637	105.1	90
2	810095	105.3	100
2	811529	105.5	100
2	811543	105.5	110
2	814122	105.887	20
2	814312	105.9	30
2	815927	106.1	40
2	817407	106.3	50
2	818692	106.5	60
2	820273	106.7	70
2	821572	106.9	80
2	823207	107.1	90
2	824388	107.3	100
2	825671	107.5	100
2	827751	107.702	110
2	827751	107.702	120
2	829039	107.9	30
2	830414	108.1	40
2	831841	108.3	50
2	833459	108.5	60
2	835883	108.892	70
2	836039	108.9	80
2	837643	109.1	90
2	839299	109.3	100
2	840753	109.5	100
2	840767	109.5	110
2	842239	109.7	20
2	843405	109.9	30
2	845015	110.1	40
2	846619	110.3	50
2	848057	110.5	60
2	850566	110.885	70
2	850780	110.9	80
2	852268	111.1	90
2	853877	111.3	100
2	855335	111.5	100
2	855349	111.5	110
2	856829	111.7	20
2	858120	111.9	30
2	859743	112.1	40
2	861205	112.3	50
2	862647	112.5	60
2	863932	112.7	70
2	865519	112.9	80
2	867027	113.1	90
2	868453	113.3	100
2	869887	113.5	100
2	869901	113.5	110
2	871242	113.7	20
2	872814	113.9	30
2	874053	114.1	40
2	875656	114.3	50
2	877238	114.5	60
2	878676	114.7	70
2	880112	114.9	80
2	881322	115.1	90
2	882731	115.3	100
2	884356	115.5	100
2	884370	115.5	110
2	886032	115.7	20
2	887478	115.9	30
2	888962	116.1	40
2	890255	116.3	50
2	891834	116.5	60
2	893131	116.7	70
2	894721	116.9	80
2	896230	117.1	90
2	897668	117.3	100
2	899098	117.5	100
2	899112	117.5	110
2	900596	117.7	20
2	901759	117.9	30
2	903460	118.1	40
2	904972	118.3	50
2	906144	118.5	60
2	907791	118.7	70
2	909053	118.9	80
2	910718	119.1	90
2	912019	119.3	100
2	913650	119.5	100
2	913664	119.5	110
2	915240	119.7	20
2	916670	119.9	30
2	917884	120.1	40
2	919533	120.3	50
2	920791	120.5	60
2	922444	120.7	70
2	923992	120.9	80
2	926497	121.282	90
2	926685	121.3	100
2	928204	121.5	100
2	928219	121.5	110
2	930569	121.882	20
2	930761	121.9	30
2	932578	122.1	40
2	934253	122.3	50
2	935775	122.5	60
2	937211	122.7	70
2	938651	122.9	80
2	940141	123.1	90
2	941571	123.3	100
2	943013	123.5	100
2	943027	123.5	110
2	944505	123.7	20
2	947102	124.089	30
2	947280	124.1	40
2	948837	124.3	50
2	950321	124.5	60
2	951755	124.7	70
2	954274	125.084	80
2	955795	125.287	90
2	955997	125.3	100
2	957588	125.5	100
2	957602	125.5	110
2	959114	125.7	20
2	960564	125.9	30
2	961779	126.1	40
2	963430	126.3	50
2	966051	126.689	60
2	966229	126.7	70
2	967372	126.9	80
2	969240	127.1	90
2	970788	127.3	100
2	972216	127.5	100
2	973098	127.683	10
2	973286	127.7	20
2	975077	127.9	30
2	976672	128.1	40
2	978104	128.3	50
2	979548	128.5	60
2	980988	128.7	70
2	982428	128.9	80
2	983763	129.1	90
14	7341	10.33	30
14	7341	10.33	40
14	8614	10.5	50
14	10242	10.7	60
14	12521	10.9	70
14	14801	11.1	80
14	16608	11.3	90
14	18107	11.5	90
14	18122	11.5	100
14	19667	11.7	30
14	21923	11.9	40
14	23905	12.1	50
14	25680	12.3	60
14	27471	12.5	70
14	29258	12.7	80
14	30894	12.9	90
14	32850	13.1	100
14	34667	13.3	110
14	36173	13.5	110
14	36188	13.5	120
14	37708	13.7	30
14	39738	13.9	40
14	45847	14.643	50
14	45847	14.643	60
14	45847	14.643	70
14	49113	14.936	80
14	49113	14.936	90
14	50245	15.1	100
14	54397	15.5	100
14	55152	15.53	110
14	55152	15.53	120
14	56474	15.7	30
14	58345	15.9	40
14	59898	16.1	50
14	61220	16.3	60
14	63606	16.5	70
14	65418	16.7	80
14	67342	16.9	90
14	69195	17.1	100
14	70972	17.3	110
14	72479	17.5	110
14	72494	17.5	120
14	74031	17.7	30
14	76293	17.9	40
14	78271	18.1	50
14	80058	18.3	60
14	81837	18.5	70
14	83626	18.7	80
14	85132	18.9	90
14	86644	19.1	100
14	88389	19.3	110
14	89647	19.5	110
14	89662	19.5	120
14	92257	19.7	40
14	94532	19.9	50
14	96365	20.1	60
14	98150	20.3	70
14	99668	20.5	80
14	101138	20.7	90
14	102603	20.9	100
14	105172	21.1	110
14	107151	21.3	120
14	108666	21.5	120
14	111270	21.816	20
14	111270	21.816	30
14	112207	21.9	40
14	114476	22.1	50
14	116257	22.3	60
14	117899	22.5	70
14	121982	22.933	80
14	121982	22.933	90
14	123128	23.1	100
14	124684	23.3	110
14	126929	23.5	110
14	126944	23.5	120
14	128529	23.7	20
14	130156	23.9	30
14	131956	24.1	40
14	133355	24.3	50
14	135939	24.5	60
14	138046	24.7	70
14	139829	24.9	80
14	141390	25.1	90
14	142854	25.3	100
14	144601	25.5	100
14	144616	25.5	110
14	148649	25.93	30
14	148649	25.93	40
14	150716	26.1	50
14	152611	26.3	60
14	154400	26.5	70
14	156171	26.7	80
14	157970	26.9	90
14	159519	27.1	100
14	160996	27.3	110
14	163228	27.5	110
14	163243	27.5	120
14	167466	27.929	20
14	167466	27.929	30
14	168797	28.1	40
14	170106	28.3	50
14	171264	28.5	60
14	174241	28.93	70
14	174241	28.93	80
14	176472	29.1	90
14	178558	29.3	100
14	180961	29.5	100
14	180976	29.5	110
14	183284	29.7	20
14	185202	29.9	30
14	187065	30.1	40
14	188421	30.3	50
14	190033	30.5	60
14	192293	30.7	70
14	194086	30.9	80
14	196062	31.1	90
14	197305	31.3	100
14	198177	31.5	100
14	198192	31.5	110
14	200405	31.7	120
14	203205	31.9	50
14	205038	32.1	60
14	206970	32.3	70
14	208775	32.5	80
14	210556	32.7	90
14	214616	33.133	100
14	214616	33.133	110
14	215895	33.3	120
14	217597	33.5	120
14	217612	33.5	130
14	221682	33.931	20
14	221682	33.931	30
14	226980	34.609	40
14	229089	34.84	50
14	229089	34.84	60
14	229089	34.84	70
14	229808	34.9	80
14	234531	35.33	90
14	234531	35.33	100
14	235811	35.5	100
14	235826	35.5	110
14	239597	35.931	20
14	239597	35.931	30
14	245025	36.606	40
14	247482	36.839	50
14	247482	36.839	60
14	247482	36.839	70
14	248128	36.9	80
14	250456	37.1	90
14	252249	37.3	100
14	253873	37.5	100
14	253888	37.5	110
14	255880	37.7	20
14	257534	37.9	30
14	259508	38.1	40
14	261317	38.3	50
14	262820	38.5	60
14	264146	38.7	70
14	266373	38.9	80
14	268521	39.1	90
14	269778	39.3	100
14	270926	39.5	100
14	270941	39.5	110
14	273594	39.7	40
14	275813	39.9	50
14	277640	40.1	60
14	279421	40.3	70
14	281212	40.5	80
14	282842	40.7	90
14	284498	40.9	100
14	286035	41.1	110
14	288138	41.3	120
14	290197	41.5	120
14	292527	41.731	10
14	292527	41.731	20
14	293802	41.9	30
14	295562	42.1	40
14	297335	42.3	50
14	299275	42.5	60
14	300947	42.7	70
14	302323	42.9	80
14	303549	43.1	90
14	305484	43.3	100
14	307815	43.5	100
14	307830	43.5	110
14	309621	43.7	30
14	311761	43.9	40
14	315949	44.332	50
14	315949	44.332	60
14	317212	44.5	70
14	319064	44.7	80
14	322559	45.129	90
14	322559	45.129	100
14	323678	45.3	110
14	324978	45.5	110
14	324993	45.5	120
14	330413	45.934	50
14	330413	45.934	60
14	331974	46.1	70
14	333578	46.3	80
14	334897	46.5	90
14	337287	46.7	100
14	339266	46.9	110
14	343310	47.33	120
14	344331	47.5	120
14	345252	47.56	130
14	345252	47.56	140
14	346365	47.7	30
14	348358	47.9	40
14	350185	48.1	50
14	351692	48.3	60
14	353163	48.5	70
14	354906	48.7	80
14	356455	48.9	90
14	361032	49.332	100
14	361032	49.332	110
14	362149	49.5	110
14	362164	49.5	120
14	364583	49.7	40
14	366521	49.9	50
14	368360	50.1	60
14	370147	50.3	70
14	371932	50.5	80
14	373713	50.7	90
14	375502	50.9	100
14	377327	51.1	110
14	378556	51.3	120
14	379694	51.5	120
14	379709	51.5	130
14	381795	51.7	40
14	383400	51.9	50
14	388438	52.331	60
14	388438	52.331	70
14	389975	52.5	80
14	391681	52.7	90
14	393607	52.9	100
14	395464	53.1	110
14	397251	53.3	120
14	399020	53.5	120
14	399035	53.5	130
14	403106	53.929	20
14	403106	53.929	30
14	404440	54.1	40
14	406307	54.3	50
14	408096	54.5	60
14	409604	54.7	70
14	410917	54.9	80
14	413212	55.1	90
14	415063	55.3	100
14	416541	55.5	100
14	416556	55.5	110
14	418595	55.7	40
14	420222	55.9	50
14	422527	56.1	60
14	426694	56.534	70
14	426694	56.534	80
14	427976	56.7	90
14	429702	56.9	100
14	431668	57.1	110
14	434542	57.5	110
14	435124	57.531	120
14	435124	57.531	130
14	436456	57.7	30
14	441217	58.13	40
14	441217	58.13	50
14	442503	58.3	60
14	443824	58.5	70
14	444964	58.7	80
14	447571	58.9	90
14	449808	59.1	100
14	451448	59.3	110
14	452779	59.5	110
14	452795	59.5	120
14	454349	59.7	30
14	458153	60.131	40
14	458153	60.131	50
14	460250	60.3	60
14	462260	60.5	70
14	463498	60.7	80
14	464930	60.9	90
14	469551	61.333	100
14	469551	61.333	110
14	471019	61.5	110
14	471034	61.5	120
14	473393	61.7	20
14	475332	61.9	30
14	477187	62.1	40
14	478970	62.3	50
14	480477	62.5	60
14	481799	62.7	70
14	484031	62.9	80
14	488317	63.337	90
14	488317	63.337	100
14	489529	63.5	100
14	493209	64.008	10
14	493209	64.008	20
14	493209	64.008	30
14	497253	64.332	40
14	497253	64.332	50
14	498656	64.5	60
14	500118	64.7	70
14	501314	64.9	80
14	503893	65.1	90
14	506005	65.3	100
14	507905	65.5	100
14	507925	65.5	110
14	509528	65.7	20
14	511010	65.9	30
14	513299	66.1	40
14	514700	66.3	50
14	515859	66.5	60
14	517642	66.7	70
14	520369	66.9	80
14	522504	67.1	90
14	524293	67.3	100
14	525915	67.5	100
14	525930	67.5	110
14	527932	67.7	20
14	529737	67.9	30
14	531287	68.1	40
14	532753	68.3	50
14	537168	68.733	60
14	537168	68.733	70
14	538125	68.9	80
14	541601	69.33	90
14	541601	69.33	100
14	543709	69.5	100
14	543724	69.5	110
14	546090	69.7	20
14	547746	69.9	30
14	549720	70.1	40
14	551525	70.3	50
14	553304	70.5	60
14	557320	70.931	70
14	557320	70.931	80
14	558653	71.1	90
14	560524	71.3	100
14	562299	71.5	100
14	562314	71.5	110
14	564167	71.7	20
14	565954	71.9	30
14	567787	72.1	40
14	569131	72.3	50
14	570599	72.5	60
14	572064	72.7	70
14	573664	72.9	80
14	574899	73.1	90
14	576015	73.3	100
14	577133	73.5	100
14	577148	73.5	110
14	578963	73.7	50
14	581017	73.9	60
14	582503	74.1	70
14	583949	74.3	80
14	585389	74.5	90
14	586829	74.7	100
14	588267	74.9	110
14	589757	75.1	120
14	591197	75.3	130
14	592621	75.5	130
14	594410	75.739	10
14	595971	75.973	20
14	595971	75.973	30
14	596843	76.1	40
14	598251	76.3	50
14	599906	76.5	60
14	601442	76.7	70
14	602886	76.9	80
14	604372	77.1	90
14	605810	77.3	100
14	607240	77.5	100
14	607254	77.5	110
14	608738	77.7	20
14	610176	77.9	30
14	611662	78.1	40
14	612955	78.3	50
14	616258	78.73	60
14	616258	78.73	70
14	617366	78.9	80
14	618940	79.1	90
14	620374	79.3	100
14	621806	79.5	100
14	621820	79.5	110
14	623304	79.7	20
14	624585	79.9	30
14	625943	80.1	40
14	627359	80.3	50
14	629104	80.5	60
14	630596	80.7	70
14	631483	80.9	80
14	633118	81.1	90
14	634981	81.3	100
14	636450	81.5	100
14	636464	81.5	110
14	637946	81.7	20
14	639237	81.9	30
14	640856	82.1	40
14	642326	82.3	50
14	643764	82.5	60
14	645053	82.7	70
14	646626	82.9	80
14	648136	83.1	90
14	649574	83.3	100
14	651008	83.5	100
14	651022	83.5	110
14	652508	83.7	20
14	653795	83.9	30
14	655402	84.1	40
14	658548	84.618	50
14	660207	84.848	60
14	660207	84.848	70
14	660758	84.9	80
14	662750	85.1	90
14	664059	85.3	100
14	665644	85.5	100
14	665658	85.5	110
14	667154	85.7	20
14	668443	85.9	30
14	670064	86.1	40
14	671536	86.3	50
14	674679	86.731	60
14	674679	86.731	70
14	675819	86.9	80
14	677385	87.1	90
14	678559	87.3	100
14	680032	87.5	100
14	680046	87.5	110
14	681787	87.7	20
14	683249	87.9	30
14	684737	88.1	40
14	686175	88.3	50
14	687613	88.5	60
14	689049	88.7	70
14	690485	88.9	80
14	691979	89.1	90
14	693419	89.3	100
14	694851	89.5	100
14	694865	89.5	110
14	696073	89.7	20
14	697712	89.9	30
14	699302	90.1	40
14	702266	90.531	50
14	702266	90.531	60
14	703541	90.7	70
14	705090	90.9	80
14	708134	91.339	90
14	708134	91.339	100
14	709358	91.5	100
14	709372	91.5	110
14	710817	91.7	20
14	712406	91.9	30
14	715609	92.33	40
14	715609	92.33	50
14	716716	92.5	60
14	718093	92.7	70
14	719653	92.9	80
14	721180	93.1	90
14	722624	93.3	100
14	724054	93.5	100
14	724068	93.5	110
14	725548	93.7	20
14	726984	93.9	30
14	728472	94.1	40
14	729914	94.3	50
14	731354	94.5	60
14	732792	94.7	70
14	734224	94.9	80
14	735718	95.1	90
14	737156	95.3	100
14	738592	95.5	100
14	738606	95.5	110
14	740088	95.7	20
14	741526	95.9	30
14	743022	96.1	40
14	744458	96.3	50
14	745896	96.5	60
14	747338	96.7	70
14	748778	96.9	80
14	750258	97.1	90
14	751547	97.3	100
14	753096	97.5	100
14	753115	97.5	110
14	754638	97.7	20
14	756078	97.9	30
14	759071	98.331	40
14	759071	98.331	50
14	760402	98.5	60
14	763671	98.933	70
14	765271	99.165	80
14	765271	99.165	90
14	766155	99.3	100
14	767793	99.5	100
14	767807	99.5	110
14	769289	99.7	20
14	770735	99.9	30
14	772221	100.1	40
14	773653	100.3	50
14	774946	100.5	60
14	776507	100.7	70
14	777993	100.9	80
14	779477	101.1	90
14	780915	101.3	100
14	781792	101.5	100
14	781806	101.5	110
14	783613	101.7	30
14	785317	101.9	40
14	786803	102.1	50
14	788241	102.3	60
14	789677	102.5	70
14	791125	102.7	80
14	794222	103.137	90
14	794222	103.137	100
14	795143	103.3	110
14	796866	103.5	110
14	796880	103.5	120
14	798462	103.7	20
14	799912	103.9	30
14	801396	104.1	40
14	802838	104.3	50
14	804270	104.5	60
14	805551	104.7	70
14	806981	104.9	80
14	808636	105.1	90
14	810094	105.3	100
14	811528	105.5	100
14	811542	105.5	110
14	813024	105.7	20
14	814311	105.9	30
14	815926	106.1	40
14	817406	106.3	50
14	818691	106.5	60
14	820272	106.7	70
14	821571	106.9	80
14	825019	107.416	90
14	825019	107.416	100
14	825670	107.5	100
14	825684	107.5	110
14	827323	107.7	20
14	829038	107.9	30
14	830413	108.1	40
14	831840	108.3	50
14	833458	108.5	60
14	834910	108.7	70
14	836038	108.9	80
14	837642	109.1	90
14	839298	109.3	100
14	840752	109.5	100
14	840766	109.5	110
14	842238	109.7	20
14	843404	109.9	30
14	845014	110.1	40
14	846618	110.3	50
14	848056	110.5	60
14	849349	110.7	70
14	850779	110.9	80
14	852267	111.1	90
14	853876	111.3	100
14	855334	111.5	100
14	855348	111.5	110
14	856828	111.7	20
14	858119	111.9	30
14	859742	112.1	40
14	861204	112.3	50
14	862646	112.5	60
14	863931	112.7	70
14	865518	112.9	80
14	867026	113.1	90
14	868452	113.3	100
14	869886	113.5	100
14	869900	113.5	110
14	871241	113.7	20
14	872813	113.9	30
14	874052	114.1	40
14	875655	114.3	50
14	877237	114.5	60
14	878675	114.7	70
14	880111	114.9	80
14	881321	115.1	90
14	882730	115.3	100
14	884355	115.5	100
14	884369	115.5	110
14	886031	115.7	20
14	887477	115.9	30
14	888961	116.1	40
14	890254	116.3	50
14	891833	116.5	60
14	893130	116.7	70
14	894720	116.9	80
14	896229	117.1	90
14	897667	117.3	100
14	899097	117.5	100
14	899111	117.5	110
14	902304	117.93	20
14	902304	117.93	30
14	903459	118.1	40
14	904971	118.3	50
14	906143	118.5	60
14	907790	118.7	70
14	909052	118.9	80
14	912571	119.335	90
14	912571	119.335	100
14	913649	119.5	100
14	913663	119.5	110
14	915239	119.7	20
14	916669	119.9	30
14	917883	120.1	40
14	919532	120.3	50
14	920790	120.5	60
14	922443	120.7	70
14	923991	120.9	80
14	925185	121.1	90
14	926684	121.3	100
14	928203	121.5	100
14	930131	121.826	10
14	930131	121.826	20
14	933138	122.13	30
14	933138	122.13	40
14	934252	122.3	50
14	935774	122.5	60
14	937210	122.7	70
14	938650	122.9	80
14	940140	123.1	90
14	941570	123.3	100
14	943012	123.5	100
14	943026	123.5	110
14	944504	123.7	20
14	945944	123.9	30
14	947279	124.1	40
14	948836	124.3	50
14	950320	124.5	60
14	951754	124.7	70
14	952924	124.9	80
14	954467	125.1	90
14	955996	125.3	100
14	957587	125.5	100
14	957601	125.5	110
14	959113	125.7	20
14	962310	126.129	30
14	962310	126.129	40
14	963429	126.3	50
14	964945	126.5	60
14	967921	126.929	70
14	967921	126.929	80
14	969239	127.1	90
14	970787	127.3	100
14	972215	127.5	100
14	973801	127.732	10
14	973801	127.732	20
14	975076	127.9	30
14	976671	128.1	40
14	978103	128.3	50
14	979547	128.5	60
14	980987	128.7	70
14	982427	128.9	80
14	983762	129.1	90
14	985334	129.3	100
14	986481	129.5	100
14	986494	129.5	110
14	987622	129.7	120
14	988709	129.9	130
14	989700	130.1	140
14	990659	130.3	150
14	991974	130.5	160
14	993177	130.7	170
14	994268	130.9	180
14	995415	131.1	190
14	996510	131.3	200
14	997593	131.5	200
14	997606	131.5	210
14	998568	131.7	20
14	999812	131.9	30
14	1000969	132.1	40
14	1002060	132.3	50
14	1003161	132.5	60
14	1004254	132.7	70
14	1005353	132.9	80
14	1006490	133.1	90
14	1007585	133.3	100
14	1008672	133.5	100
14	1008685	133.5	110
14	1009806	133.7	20
14	1010891	133.9	30
14	1012040	134.1	40
14	1013129	134.3	50
14	1013946	134.5	60
14	1015243	134.7	70
14	1016289	134.9	80
14	1017567	135.1	90
14	1018690	135.3	100
14	1019491	135.5	100
14	1019504	135.5	110
14	1022133	135.932	30
14	1022133	135.932	40
14	1023093	136.1	50
14	1024278	136.3	60
14	1025371	136.5	70
14	1027650	136.929	80
14	1027650	136.929	90
14	1028630	137.1	100
14	1029531	137.3	110
14	1030822	137.5	110
14	1030835	137.5	120
14	1032060	137.7	20
14	1033145	137.9	30
14	1033731	138.1	40
14	1035140	138.3	50
14	1036503	138.5	60
14	1037598	138.7	70
14	1038544	138.9	80
14	1039826	139.1	90
14	1041751	139.5	90
14	1042157	139.531	100
14	1042157	139.531	110
14	1043090	139.7	30
14	1044271	139.9	40
14	1045408	140.1	50
14	1046507	140.3	60
14	1047604	140.5	70
14	1048693	140.7	80
14	1049788	140.9	90
14	1050933	141.1	100
14	1052030	141.3	110
14	1053109	141.5	110
14	1053122	141.5	120
14	1054243	141.7	20
14	1055340	141.9	30
14	1056199	142.1	40
14	1057496	142.3	50
14	1058413	142.5	60
14	1059702	142.7	70
14	1060909	142.9	80
14	1062050	143.1	90
14	1063145	143.3	100
14	1064228	143.5	100
14	1064241	143.5	110
14	1066558	143.933	20
14	1066558	143.933	30
14	1067524	144.1	40
14	1068709	144.3	50
14	1069800	144.5	60
14	1070899	144.7	70
14	1071994	144.9	80
14	1073133	145.1	90
14	1074228	145.3	100
14	1075317	145.5	100
14	1075330	145.5	110
14	1076447	145.7	20
14	1077544	145.9	30
14	1079744	146.335	40
14	1080958	146.571	50
14	1080958	146.571	60
14	1081752	146.7	70
14	1083117	146.9	80
14	1084254	147.1	90
14	1085347	147.3	100
14	1086442	147.5	100
14	1086455	147.5	110
14	1087566	147.7	20
14	1089902	148.131	30
14	1089902	148.131	40
14	1090829	148.3	50
14	1092008	148.5	60
14	1093107	148.7	70
14	1094202	148.9	80
14	1095184	149.1	90
14	1096422	149.3	100
14	1097529	149.5	100
14	1097542	149.5	110
14	1098661	149.7	20
14	1099758	149.9	30
14	1100748	150.1	40
14	1103188	150.531	50
14	1103188	150.531	60
14	1104150	150.7	70
14	1105333	150.9	80
14	1106321	151.1	90
14	1107557	151.3	100
14	1108513	151.5	100
14	1108526	151.5	110
14	1109500	151.7	20
14	1110827	151.9	30
14	1113270	152.332	40
14	1113270	152.332	50
14	1114190	152.5	60
14	1115085	152.7	70
14	1116388	152.9	80
14	1117464	153.1	90
14	1118425	153.3	100
14	1119539	153.5	100
14	1119552	153.5	110
14	1120969	153.7	20
14	1122070	153.9	30
14	1123211	154.1	40
14	1124304	154.3	50
14	1125395	154.5	60
14	1126490	154.7	70
14	1127438	154.9	80
14	1128716	155.1	90
14	1129833	155.3	100
14	1130918	155.5	100
14	1130931	155.5	110
14	1132050	155.7	20
14	1133139	155.9	30
14	1133729	156.1	40
14	1135152	156.3	50
14	1136501	156.5	60
14	1137598	156.7	70
14	1139808	157.137	80
14	1139808	157.137	90
14	1140708	157.3	100
14	1142014	157.5	100
14	1143023	157.729	10
14	1143023	157.729	20
14	1143638	157.9	30
14	1145185	158.1	40
14	1146540	158.3	50
14	1147639	158.5	60
14	1148732	158.7	70
14	1149831	158.9	80
14	1150972	159.1	90
14	1152065	159.3	100
14	1153152	159.5	100
14	1154394	159.733	10
14	1154394	159.733	20
14	1155311	159.9	30
14	1156536	160.1	40
14	1157631	160.3	50
14	1158442	160.5	60
14	1161035	160.93	70
14	1161035	160.93	80
14	1162017	161.1	90
14	1163192	161.3	100
14	1164275	161.5	100
14	1164288	161.5	110
14	1165407	161.7	20
14	1166498	161.9	30
14	1167492	162.1	40
14	1168728	162.3	50
14	1169843	162.5	60
14	1170938	162.7	70
14	1172033	162.9	80
14	1173019	163.1	90
14	1174263	163.3	100
14	1175362	163.5	100
14	1175375	163.5	110
14	1176490	163.7	20
14	1177591	163.9	30
14	1179792	164.332	40
14	1180987	164.565	50
14	1180987	164.565	60
14	1181837	164.7	70
14	1183164	164.9	80
14	1184158	165.1	90
14	1185372	165.3	100
14	1186491	165.5	100
14	1186504	165.5	110
14	1187627	165.7	20
14	1188726	165.9	30
14	1189863	166.1	40
14	1190674	166.3	50
14	1191981	166.5	60
14	1193178	166.7	70
14	1195498	167.129	80
14	1195498	167.129	90
14	1197329	167.5	90
14	1197629	167.533	100
14	1198918	167.814	20
14	1198918	167.814	30
14	1199497	167.9	40
14	1201014	168.1	50
14	1202121	168.3	60
14	1203216	168.5	70
14	1204307	168.7	80
14	1205406	168.9	90
14	1206545	169.1	100
14	1208202	169.5	100
14	1208625	169.529	100
14	1208625	169.529	110
14	1209820	169.7	30
14	1211001	169.9	40
14	1212142	170.1	50
14	1213235	170.3	60
14	1214332	170.5	70
14	1215423	170.7	80
14	1216518	170.9	90
14	1217663	171.1	100
14	1218760	171.3	110
14	1219835	171.5	110
14	1221084	171.735	10
14	1221084	171.735	20
14	1222000	171.9	30
14	1223223	172.1	40
14	1224320	172.3	50
14	1225415	172.5	60
14	1226349	172.7	70
14	1227032	172.9	80
14	1228521	173.1	90
14	1230680	173.5	90
14	1231078	173.53	100
14	1232290	173.765	20
14	1232290	173.765	30
14	1233018	173.9	40
14	1234367	174.1	50
14	1235468	174.3	60
14	1236567	174.5	70
14	1237658	174.7	80
14	1239824	175.217	90
14	1239824	175.217	100
vector 15 FastSMRModel.logicComputer[0].node[7] QdLengthVector:vector ETV
attr source QdLength
attr title "Qd Length, vector"
vector 16 FastSMRModel.logicComputer[0].node[5] QdLengthVector:vector ETV
attr source QdLength
attr title "Qd Length, vector"
vector 17 FastSMRModel.logicComputer[0].node[6] QdLengthVector:vector ETV
attr source QdLength
attr title "Qd Length, vector"
4	5478	10.1	30
4	6678	10.3	40
4	8618	10.5	50
4	10246	10.7	60
4	12525	10.9	70
4	14805	11.1	80
4	16612	11.3	90
4	18111	11.5	90
4	18126	11.5	100
4	19671	11.7	110
4	21927	11.9	40
4	23909	12.1	50
4	25684	12.3	60
4	27475	12.5	70
4	29262	12.7	80
4	30898	12.9	90
4	32854	13.1	100
4	36177	13.5	100
4	38354	13.719	10
4	38354	13.719	20
4	41832	14.138	30
4	41832	14.138	40
4	44867	14.557	50
4	44867	14.557	60
4	44867	14.557	70
4	46642	14.7	80
4	48667	14.9	90
4	50249	15.1	100
4	52422	15.3	110
4	54401	15.5	110
4	54416	15.5	120
4	56478	15.7	120
4	58349	15.9	40
4	59902	16.1	50
4	61224	16.3	60
4	63610	16.5	70
4	65422	16.7	80
4	67346	16.9	90
4	69199	17.1	100
4	70976	17.3	110
4	72483	17.5	110
4	72498	17.5	120
4	74035	17.7	120
4	76297	17.9	40
4	78275	18.1	50
4	80062	18.3	60
4	81841	18.5	70
4	87173	19.119	80
4	87173	19.119	90
4	89651	19.5	90
4	90268	19.542	100
4	90268	19.542	110
4	90268	19.542	120
4	92261	19.7	130
4	94536	19.9	50
4	96369	20.1	60
4	103247	20.92	70
4	103247	20.92	80
4	103247	20.92	90
4	103247	20.92	100
4	105176	21.1	110
4	107155	21.3	120
4	108670	21.5	120
4	108685	21.5	130
4	109951	21.7	120
4	112211	21.9	40
4	114480	22.1	50
4	116261	22.3	60
4	117903	22.5	70
4	119660	22.7	80
4	125334	23.32	90
4	125334	23.32	100
4	125334	23.32	110
4	126933	23.5	110
4	126948	23.5	120
4	128533	23.7	130
4	130160	23.9	30
4	131960	24.1	40
4	133359	24.3	50
4	135943	24.5	60
4	138050	24.7	70
4	139833	24.9	80
4	141394	25.1	90
4	142858	25.3	100
4	144605	25.5	100
4	144620	25.5	110
4	146529	25.7	120
4	147959	25.9	40
4	150720	26.1	50
4	152615	26.3	60
4	154404	26.5	70
4	156175	26.7	80
4	157974	26.9	90
4	159523	27.1	100
4	161000	27.3	110
4	163232	27.5	110
4	163247	27.5	120
4	165253	27.7	130
4	166775	27.9	30
4	171818	28.523	40
4	174507	28.942	50
4	174507	28.942	60
4	174507	28.942	70
4	179190	29.361	80
4	179190	29.361	90
4	179190	29.361	100
4	180965	29.5	100
4	180980	29.5	110
4	183288	29.7	120
4	185206	29.9	30
4	187069	30.1	40
4	188425	30.3	50
4	190037	30.5	60
4	192297	30.7	70
4	194090	30.9	80
4	198181	31.5	80
4	198608	31.522	90
4	198608	31.522	100
4	198608	31.522	110
4	200409	31.7	120
4	203209	31.9	50
4	205042	32.1	60
4	206974	32.3	70
4	208779	32.5	80
4	210560	32.7	90
4	212353	32.9	100
4	213903	33.1	110
4	215899	33.3	120
4	217601	33.5	120
4	217616	33.5	130
4	219604	33.7	140
4	220991	33.9	30
4	226170	34.52	40
4	226170	34.52	50
4	226170	34.52	60
4	227760	34.7	70
4	229812	34.9	80
4	232295	35.1	90
4	233827	35.3	100
4	235815	35.5	100
4	235830	35.5	110
4	237487	35.7	120
4	238691	35.9	30
4	244178	36.522	40
4	244178	36.522	50
4	244178	36.522	60
4	245914	36.7	70
4	248132	36.9	80
4	250460	37.1	90
4	252253	37.3	100
4	253877	37.5	100
4	253892	37.5	110
4	255884	37.7	120
4	257538	37.9	30
4	259512	38.1	40
4	261321	38.3	50
4	262824	38.5	60
4	264150	38.7	70
4	266377	38.9	80
4	270930	39.5	80
4	271461	39.518	90
4	271461	39.518	100
4	271461	39.518	110
4	273598	39.7	120
4	275817	39.9	50
4	277644	40.1	60
4	279425	40.3	70
4	281216	40.5	80
4	282846	40.7	90
4	284502	40.9	100
4	286039	41.1	110
4	288142	41.3	120
4	290201	41.5	120
4	290216	41.5	130
4	291818	41.7	120
4	293806	41.9	30
4	295566	42.1	40
4	297339	42.3	50
4	299279	42.5	60
4	304045	43.119	70
4	304045	43.119	80
4	304045	43.119	90
4	305488	43.3	100
4	307819	43.5	100
4	307834	43.5	110
4	309625	43.7	120
4	311765	43.9	40
4	313696	44.1	50
4	315341	44.3	60
4	317216	44.5	70
4	319068	44.7	80
4	320751	44.9	90
4	324982	45.5	90
4	325613	45.532	100
4	325613	45.532	110
4	325613	45.532	120
4	327238	45.7	130
4	329588	45.9	60
4	335530	46.521	70
4	335530	46.521	80
4	335530	46.521	90
4	337291	46.7	100
4	339270	46.9	110
4	341103	47.1	120
4	342605	47.3	130
4	344335	47.5	130
4	344350	47.5	140
4	346369	47.7	150
4	348362	47.9	40
4	350189	48.1	50
4	351696	48.3	60
4	353167	48.5	70
4	354910	48.7	80
4	356459	48.9	90
4	358914	49.1	100
4	360476	49.3	110
4	362153	49.5	110
4	362168	49.5	120
4	364587	49.7	120
4	366525	49.9	50
4	368364	50.1	60
4	370151	50.3	70
4	371936	50.5	80
4	373717	50.7	90
4	375506	50.9	100
4	379698	51.5	100
4	380130	51.519	110
4	380130	51.519	120
4	383990	51.937	30
4	383990	51.937	40
4	383990	51.937	50
4	385329	52.1	60
4	387617	52.3	70
4	389979	52.5	80
4	391685	52.7	90
4	393611	52.9	100
4	395468	53.1	110
4	397255	53.3	120
4	399024	53.5	120
4	399039	53.5	130
4	400894	53.7	120
4	402414	53.9	30
4	404444	54.1	40
4	406311	54.3	50
4	411444	54.919	60
4	411444	54.919	70
4	411444	54.919	80
4	413216	55.1	90
4	415067	55.3	100
4	416545	55.5	100
4	420872	55.919	30
4	420872	55.919	40
4	420872	55.919	50
4	422531	56.1	60
4	424480	56.3	70
4	425990	56.5	80
4	427980	56.7	90
4	429706	56.9	100
4	431672	57.1	110
4	433469	57.3	120
4	434546	57.5	120
4	434561	57.5	130
4	436460	57.7	140
4	438784	57.9	40
4	440513	58.1	50
4	445518	58.723	60
4	445518	58.723	70
4	445518	58.723	80
4	447575	58.9	90
4	449812	59.1	100
4	451452	59.3	110
4	452783	59.5	110
4	456230	59.919	20
4	456230	59.919	30
4	456230	59.919	40
4	457612	60.1	50
4	464011	60.719	60
4	466100	61.06	70
4	466100	61.06	80
4	470534	61.482	90
4	470534	61.482	100
4	470534	61.482	110
4	471023	61.5	110
4	471038	61.5	120
4	473397	61.7	130
4	475336	61.9	30
4	477191	62.1	40
4	478974	62.3	50
4	480481	62.5	60
4	481803	62.7	70
4	484035	62.9	80
4	486174	63.1	90
4	487720	63.3	100
4	489533	63.5	100
4	492054	63.923	10
4	492054	63.923	20
4	492054	63.923	30
4	494473	64.1	40
4	496676	64.3	50
4	501814	64.919	60
4	501814	64.919	70
4	501814	64.919	80
4	503897	65.1	90
4	506009	65.3	100
4	507909	65.5	100
4	511652	65.919	10
4	511652	65.919	20
4	511652	65.919	30
4	516240	66.52	40
4	516240	66.52	50
4	516240	66.52	60
4	517646	66.7	70
4	520373	66.9	80
4	522508	67.1	90
4	524297	67.3	100
4	525919	67.5	100
4	525934	67.5	110
4	527936	67.7	120
4	533405	68.321	30
4	533405	68.321	40
4	533405	68.321	50
4	535016	68.5	60
4	539614	69.12	70
4	539614	69.12	80
4	539614	69.12	90
4	541051	69.3	100
4	543713	69.5	100
4	543728	69.5	110
4	546094	69.7	120
4	547750	69.9	30
4	549724	70.1	40
4	551529	70.3	50
4	553308	70.5	60
4	554944	70.7	70
4	556593	70.9	80
4	558657	71.1	90
4	560528	71.3	100
4	562303	71.5	100
4	562318	71.5	110
4	564171	71.7	120
4	565958	71.9	30
4	567791	72.1	40
4	569135	72.3	50
4	570602	72.5	60
4	572067	72.7	70
4	577136	73.5	70
4	577990	73.6	80
4	577990	73.6	90
4	577990	73.6	100
4	577990	73.6	110
4	578966	73.7	50
4	581020	73.9	60
4	582506	74.1	70
4	583952	74.3	80
4	585392	74.5	90
4	586832	74.7	100
4	588270	74.9	110
4	589760	75.1	120
4	591200	75.3	130
4	592624	75.5	130
4	592638	75.5	140
4	593847	75.7	20
4	595240	75.9	30
4	598819	76.33	40
4	598819	76.33	50
4	599909	76.5	60
4	601445	76.7	70
4	602889	76.9	80
4	604375	77.1	90
4	605813	77.3	100
4	607243	77.5	100
4	607257	77.5	110
4	608741	77.7	20
4	610179	77.9	30
4	611665	78.1	40
4	612958	78.3	50
4	614525	78.5	60
4	615722	78.7	70
4	617369	78.9	80
4	618943	79.1	90
4	620377	79.3	100
4	621809	79.5	100
4	621823	79.5	110
4	623307	79.7	20
4	624588	79.9	30
4	625946	80.1	40
4	627362	80.3	50
4	629107	80.5	60
4	631768	80.937	70
4	631768	80.937	80
4	633121	81.1	90
4	634984	81.3	100
4	636453	81.5	100
4	636467	81.5	110
4	637949	81.7	20
4	639240	81.9	30
4	640859	82.1	40
4	642329	82.3	50
4	643767	82.5	60
4	645056	82.7	70
4	646629	82.9	80
4	648139	83.1	90
4	649577	83.3	100
4	651011	83.5	100
4	651025	83.5	110
4	652511	83.7	20
4	653798	83.9	30
4	655405	84.1	40
4	658064	84.534	50
4	658064	84.534	60
4	659090	84.7	70
4	660761	84.9	80
4	662753	85.1	90
4	664062	85.3	100
4	665647	85.5	100
4	665661	85.5	110
4	667157	85.7	20
4	668446	85.9	30
4	670067	86.1	40
4	673151	86.533	50
4	673151	86.533	60
4	674074	86.7	70
4	675822	86.9	80
4	678996	87.334	90
4	678996	87.334	100
4	680035	87.5	100
4	680049	87.5	110
4	681790	87.7	20
4	683252	87.9	30
4	684740	88.1	40
4	686178	88.3	50
4	687616	88.5	60
4	689052	88.7	70
4	690488	88.9	80
4	691982	89.1	90
4	693422	89.3	100
4	694854	89.5	100
4	696645	89.733	10
4	696645	89.733	20
4	697715	89.9	30
4	699305	90.1	40
4	700745	90.3	50
4	701759	90.5	60
4	703544	90.7	70
4	705093	90.9	80
4	706577	91.1	90
4	707591	91.3	100
4	709361	91.5	100
4	709375	91.5	110
4	710820	91.7	20
4	712409	91.9	30
4	713905	92.1	40
4	715080	92.3	50
4	716719	92.5	60
4	718096	92.7	70
4	719656	92.9	80
4	721183	93.1	90
4	722627	93.3	100
4	724057	93.5	100
4	724071	93.5	110
4	725551	93.7	20
4	726987	93.9	30
4	728475	94.1	40
4	729917	94.3	50
4	731357	94.5	60
4	732795	94.7	70
4	734227	94.9	80
4	735721	95.1	90
4	737159	95.3	100
4	738595	95.5	100
4	738609	95.5	110
4	740091	95.7	20
4	741529	95.9	30
4	743025	96.1	40
4	744461	96.3	50
4	745899	96.5	60
4	747341	96.7	70
4	748781	96.9	80
4	750261	97.1	90
4	751550	97.3	100
4	753099	97.5	100
4	753118	97.5	110
4	754641	97.7	20
4	757606	98.136	30
4	757606	98.136	40
4	758486	98.3	50
4	760405	98.5	60
4	761956	98.7	70
4	763119	98.9	80
4	764564	99.1	90
4	766158	99.3	100
4	767796	99.5	100
4	767810	99.5	110
4	769292	99.7	20
4	770738	99.9	30
4	772224	100.1	40
4	773656	100.3	50
4	774949	100.5	60
4	776510	100.7	70
4	777996	100.9	80
4	779480	101.1	90
4	781795	101.5	90
4	782224	101.53	100
4	782224	101.53	110
4	783616	101.7	30
4	785320	101.9	40
4	786806	102.1	50
4	788244	102.3	60
4	789680	102.5	70
4	791128	102.7	80
4	792566	102.9	90
4	795721	103.33	100
4	795721	103.33	110
4	796869	103.5	110
4	796883	103.5	120
4	798465	103.7	20
4	799915	103.9	30
4	801399	104.1	40
4	802841	104.3	50
4	804273	104.5	60
4	805554	104.7	70
4	806984	104.9	80
4	808639	105.1	90
4	810097	105.3	100
4	811531	105.5	100
4	811545	105.5	110
4	813027	105.7	20
4	814314	105.9	30
4	815929	106.1	40
4	817409	106.3	50
4	818694	106.5	60
4	820275	106.7	70
4	821574	106.9	80
4	823209	107.1	90
4	824390	107.3	100
4	825673	107.5	100
4	825687	107.5	110
4	827326	107.7	20
4	829041	107.9	30
4	830416	108.1	40
4	831843	108.3	50
4	833461	108.5	60
4	834913	108.7	70
4	836041	108.9	80
4	837645	109.1	90
4	839301	109.3	100
4	840755	109.5	100
4	840769	109.5	110
4	842241	109.7	20
4	843407	109.9	30
4	845017	110.1	40
4	846621	110.3	50
4	848059	110.5	60
4	849352	110.7	70
4	850782	110.9	80
4	852270	111.1	90
4	853879	111.3	100
4	855337	111.5	100
4	855351	111.5	110
4	856831	111.7	20
4	858122	111.9	30
4	859745	112.1	40
4	861207	112.3	50
4	862649	112.5	60
4	863934	112.7	70
4	865521	112.9	80
4	867029	113.1	90
4	868455	113.3	100
4	869889	113.5	100
4	869903	113.5	110
4	871244	113.7	20
4	874632	114.137	30
4	874632	114.137	40
4	875658	114.3	50
4	877240	114.5	60
4	878678	114.7	70
4	881889	115.13	80
4	883438	115.363	90
4	883438	115.363	100
4	884358	115.5	100
4	884372	115.5	110
4	886034	115.7	20
4	887480	115.9	30
4	888964	116.1	40
4	890257	116.3	50
4	891836	116.5	60
4	893133	116.7	70
4	894723	116.9	80
4	896232	117.1	90
4	897670	117.3	100
4	899100	117.5	100
4	899114	117.5	110
4	900598	117.7	20
4	901761	117.9	30
4	903462	118.1	40
4	906703	118.529	50
4	906703	118.529	60
4	909634	118.936	70
4	909634	118.936	80
4	910720	119.1	90
4	912021	119.3	100
4	913652	119.5	100
4	913666	119.5	110
4	915242	119.7	20
4	918461	120.132	30
4	918461	120.132	40
4	921370	120.534	50
4	921370	120.534	60
4	922446	120.7	70
4	925644	121.134	80
4	925644	121.134	90
4	926687	121.3	100
4	928206	121.5	100
4	929654	121.742	10
4	929654	121.742	20
4	930763	121.9	30
4	932580	122.1	40
4	934255	122.3	50
4	935777	122.5	60
4	937213	122.7	70
4	938653	122.9	80
4	940143	123.1	90
4	941573	123.3	100
4	943015	123.5	100
4	943029	123.5	110
4	944507	123.7	20
4	945947	123.9	30
4	947282	124.1	40
4	948839	124.3	50
4	950323	124.5	60
4	953375	124.931	70
4	953375	124.931	80
4	954470	125.1	90
4	955999	125.3	100
4	957590	125.5	100
4	957604	125.5	110
4	959116	125.7	20
4	960566	125.9	30
4	961781	126.1	40
4	963432	126.3	50
4	964948	126.5	60
4	966231	126.7	70
4	967374	126.9	80
4	969242	127.1	90
4	970790	127.3	100
4	972218	127.5	100
4	972232	127.5	110
4	973288	127.7	20
4	975079	127.9	30
4	976674	128.1	40
4	978106	128.3	50
4	979550	128.5	60
4	980990	128.7	70
4	982430	128.9	80
4	983765	129.1	90
4	985336	129.3	100
4	986483	129.5	100
4	986496	129.5	110
4	987624	129.7	120
4	988711	129.9	130
4	991083	130.332	140
4	991083	130.332	150
4	991976	130.5	160
4	993179	130.7	170
4	994270	130.9	180
4	995417	131.1	190
4	996512	131.3	200
4	997595	131.5	200
4	997608	131.5	210
4	998570	131.7	20
4	999814	131.9	30
4	1000971	132.1	40
4	1002062	132.3	50
4	1003163	132.5	60
4	1004256	132.7	70
4	1005355	132.9	80
4	1006492	133.1	90
4	1007587	133.3	100
4	1008674	133.5	100
4	1008687	133.5	110
4	1009808	133.7	20
4	1010893	133.9	30
4	1012042	134.1	40
4	1014348	134.531	50
4	1014348	134.531	60
4	1015245	134.7	70
4	1016291	134.9	80
4	1017569	135.1	90
4	1019493	135.5	90
4	1019910	135.53	100
4	1019910	135.53	110
4	1020831	135.7	30
4	1021749	135.9	40
4	1023095	136.1	50
4	1024280	136.3	60
4	1025373	136.5	70
4	1026464	136.7	80
4	1027286	136.9	90
4	1029927	137.33	100
4	1029927	137.33	110
4	1030824	137.5	110
4	1030837	137.5	120
4	1032062	137.7	20
4	1033955	138.135	30
4	1033955	138.135	40
4	1035142	138.3	50
4	1036505	138.5	60
4	1037600	138.7	70
4	1038546	138.9	80
4	1039828	139.1	90
4	1040941	139.3	100
4	1041753	139.5	100
4	1041766	139.5	110
4	1043092	139.7	30
4	1044273	139.9	40
4	1045410	140.1	50
4	1046509	140.3	60
4	1047606	140.5	70
4	1048695	140.7	80
4	1049790	140.9	90
4	1050935	141.1	100
4	1052032	141.3	110
4	1053111	141.5	110
4	1053124	141.5	120
4	1054245	141.7	20
4	1056597	142.13	30
4	1056597	142.13	40
4	1058817	142.533	50
4	1058817	142.533	60
4	1059704	142.7	70
4	1060911	142.9	80
4	1062052	143.1	90
4	1063147	143.3	100
4	1064230	143.5	100
4	1064243	143.5	110
4	1065356	143.7	20
4	1066174	143.9	30
4	1067526	144.1	40
4	1068711	144.3	50
4	1069802	144.5	60
4	1070901	144.7	70
4	1071996	144.9	80
4	1073135	145.1	90
4	1074230	145.3	100
4	1075319	145.5	100
4	1075332	145.5	110
4	1076449	145.7	20
4	1077546	145.9	30
4	1078685	146.1	40
4	1079497	146.3	50
4	1080402	146.5	60
4	1081754	146.7	70
4	1083119	146.9	80
4	1084256	147.1	90
4	1085349	147.3	100
4	1086444	147.5	100
4	1086457	147.5	110
4	1087568	147.7	20
4	1088667	147.9	30
4	1089529	148.1	40
4	1090831	148.3	50
4	1092010	148.5	60
4	1093109	148.7	70
4	1094204	148.9	80
4	1095186	149.1	90
4	1096424	149.3	100
4	1097531	149.5	100
4	1097544	149.5	110
4	1098663	149.7	20
4	1099760	149.9	30
4	1101997	150.331	40
4	1101997	150.331	50
4	1102753	150.5	60
4	1104152	150.7	70
4	1105335	150.9	80
4	1106323	151.1	90
4	1107559	151.3	100
4	1108515	151.5	100
4	1109924	151.732	10
4	1109924	151.732	20
4	1110829	151.9	30
4	1112068	152.1	40
4	1112884	152.3	50
4	1115489	152.731	60
4	1115489	152.731	70
4	1116390	152.9	80
4	1119058	153.423	90
4	1119058	153.423	100
4	1119541	153.5	100
4	1119554	153.5	110
4	1120971	153.7	20
4	1122072	153.9	30
4	1123213	154.1	40
4	1124306	154.3	50
4	1125397	154.5	60
4	1126492	154.7	70
4	1127440	154.9	80
4	1128718	155.1	90
4	1129835	155.3	100
4	1130920	155.5	100
4	1130933	155.5	110
4	1132052	155.7	20
4	1133957	156.129	30
4	1133957	156.129	40
4	1135154	156.3	50
4	1136503	156.5	60
4	1137600	156.7	70
4	1138695	156.9	80
4	1139557	157.1	90
4	1140710	157.3	100
4	1142016	157.5	100
4	1142029	157.5	110
4	1143868	157.932	20
4	1143868	157.932	30
4	1145187	158.1	40
4	1146542	158.3	50
4	1147641	158.5	60
4	1148734	158.7	70
4	1149833	158.9	80
4	1150974	159.1	90
4	1152067	159.3	100
4	1153154	159.5	100
4	1153167	159.5	110
4	1154007	159.7	20
4	1155313	159.9	30
4	1156538	160.1	40
4	1158838	160.53	50
4	1158838	160.53	60
4	1159735	160.7	70
4	1160667	160.9	80
4	1162019	161.1	90
4	1163194	161.3	100
4	1164277	161.5	100
4	1164290	161.5	110
4	1165409	161.7	20
4	1166500	161.9	30
4	1167494	162.1	40
4	1168730	162.3	50
4	1169845	162.5	60
4	1170940	162.7	70
4	1172035	162.9	80
4	1173021	163.1	90
4	1174265	163.3	100
4	1175364	163.5	100
4	1175377	163.5	110
4	1176492	163.7	20
4	1177593	163.9	30
4	1178730	164.1	40
4	1179548	164.3	50
4	1180445	164.5	60
4	1181839	164.7	70
4	1183166	164.9	80
4	1184160	165.1	90
4	1185374	165.3	100
4	1186493	165.5	100
4	1186506	165.5	110
4	1187629	165.7	20
4	1188728	165.9	30
4	1191078	166.33	40
4	1191078	166.33	50
4	1191983	166.5	60
4	1193180	166.7	70
4	1194267	166.9	80
4	1195139	167.1	90
4	1196437	167.3	100
4	1197331	167.5	100
4	1198392	167.729	20
4	1198392	167.729	30
4	1199499	167.9	40
4	1201016	168.1	50
4	1202123	168.3	60
4	1203218	168.5	70
4	1204309	168.7	80
4	1205408	168.9	90
4	1207184	169.335	100
4	1207184	169.335	110
4	1208204	169.5	110
4	1208217	169.5	120
4	1209822	169.7	30
4	1211003	169.9	40
4	1212144	170.1	50
4	1213237	170.3	60
4	1214334	170.5	70
4	1215425	170.7	80
4	1216520	170.9	90
4	1217665	171.1	100
4	1218762	171.3	110
4	1219837	171.5	110
4	1219850	171.5	120
4	1220698	171.7	20
4	1222002	171.9	30
4	1223225	172.1	40
4	1224322	172.3	50
4	1225417	172.5	60
4	1227280	172.931	70
4	1227280	172.931	80
4	1228523	173.1	90
4	1229868	173.3	100
4	1230682	173.5	100
4	1230695	173.5	110
4	1231775	173.7	30
4	1233020	173.9	40
4	1234369	174.1	50
4	1235470	174.3	60
4	1236569	174.5	70
4	1237660	174.7	80
4	1239438	175.13	90
4	1239438	175.13	100
4	1240474	175.3	110
4	1241792	175.5	110
4	1241804	175.5	120
4	1242584	175.7	130
4	1245332	177.283	160
4	1245332	177.283	160
4	1245332	177.283	160
4	1245517	177.5	160
4	1247544	179.004	170
4	1247544	179.004	180
4	1247544	179.004	190
4	1247544	179.004	200
4	1247544	179.004	210
4	1256080	179.408	220
4	1256080	179.408	230
4	1257343	179.5	230
4	1260694	179.813	240
4	1260694	179.813	250
4	1260694	179.813	260
4	1260694	179.813	270
4	1260694	179.813	280
4	1260694	179.813	290
4	1260694	179.813	300
4	1260694	179.813	310
4	1260694	179.813	320
4	1260694	179.813	330
4	1272366	180.304	340
4	1277022	180.726	350
4	1277022	180.726	360
4	1277022	180.726	370
4	1277022	180.726	380
4	1279025	180.9	390
4	1280742	181.1	400
4	1283763	181.5	210
4	1285437	181.704	220
4	1285437	181.704	230
4	1285437	181.704	240
4	1288012	181.9	250
4	1297385	182.506	260
4	1297385	182.506	270
4	1297385	182.506	280
4	1299561	182.7	290
4	1302524	182.9	300
4	1304725	183.1	310
4	1307752	183.3	320
4	1310401	183.5	110
4	1310413	183.5	120
4	1312259	183.7	130
4	1314059	183.9	110
4	1315906	184.1	120
4	1317536	184.3	130
4	1319094	184.5	140
4	1320674	184.7	150
4	1323038	184.9	160
4	1324936	185.1	170
4	1326727	185.3	100
4	1328506	185.5	100
4	1328518	185.5	110
4	1330334	185.7	110
4	1332124	185.9	110
3	5476	10.1	30
3	6676	10.3	40
3	8616	10.5	50
3	12278	10.882	60
3	12523	10.9	70
3	14803	11.1	80
3	16610	11.3	90
3	18109	11.5	90
3	18124	11.5	100
3	19669	11.7	30
3	21925	11.9	40
3	23907	12.1	50
3	25682	12.3	60
3	27473	12.5	70
3	30703	12.883	80
3	30896	12.9	90
3	32852	13.1	100
3	34669	13.3	110
3	36175	13.5	110
3	36190	13.5	120
3	37710	13.7	30
3	41068	14.086	40
3	41221	14.1	50
3	44111	14.482	60
3	44262	14.5	70
3	46640	14.7	80
3	48665	14.9	90
3	50247	15.1	100
3	52420	15.3	110
3	54399	15.5	110
3	54414	15.5	120
3	56476	15.7	30
3	58347	15.9	40
3	59900	16.1	50
3	61222	16.3	60
3	65227	16.684	70
3	65420	16.7	80
3	67344	16.9	90
3	69197	17.1	100
3	70974	17.3	110
3	72481	17.5	110
3	72496	17.5	120
3	74033	17.7	30
3	76295	17.9	40
3	78273	18.1	50
3	80060	18.3	60
3	81839	18.5	70
3	83628	18.7	80
3	85134	18.9	90
3	89649	19.5	90
3	90794	19.585	100
3	90794	19.585	110
3	90794	19.585	120
3	92259	19.7	40
3	94534	19.9	50
3	96367	20.1	60
3	98152	20.3	70
3	99670	20.5	80
3	101140	20.7	90
3	102605	20.9	100
3	105174	21.1	110
3	107153	21.3	120
3	108668	21.5	120
3	108683	21.5	130
3	109949	21.7	30
3	112209	21.9	40
3	114478	22.1	50
3	116259	22.3	60
3	117901	22.5	70
3	119658	22.7	80
3	121344	22.9	90
3	123130	23.1	100
3	124686	23.3	110
3	126931	23.5	110
3	128358	23.685	10
3	128531	23.7	20
3	130158	23.9	30
3	131958	24.1	40
3	133357	24.3	50
3	135941	24.5	60
3	138048	24.7	70
3	139831	24.9	80
3	141392	25.1	90
3	142856	25.3	100
3	144603	25.5	100
3	144618	25.5	110
3	146527	25.7	30
3	147957	25.9	40
3	150718	26.1	50
3	152613	26.3	60
3	154402	26.5	70
3	156173	26.7	80
3	157972	26.9	90
3	159521	27.1	100
3	160998	27.3	110
3	163230	27.5	110
3	163245	27.5	120
3	165251	27.7	20
3	166773	27.9	30
3	168799	28.1	40
3	170108	28.3	50
3	171266	28.5	60
3	172882	28.7	70
3	179718	29.403	80
3	179718	29.403	90
3	179718	29.403	100
3	180963	29.5	100
3	180978	29.5	110
3	183286	29.7	20
3	185204	29.9	30
3	188250	30.282	40
3	188423	30.3	50
3	190035	30.5	60
3	192295	30.7	70
3	194088	30.9	80
3	196064	31.1	90
3	197307	31.3	100
3	198179	31.5	100
3	198194	31.5	110
3	200407	31.7	40
3	203207	31.9	50
3	205040	32.1	60
3	206972	32.3	70
3	208777	32.5	80
3	210558	32.7	90
3	212351	32.9	100
3	213901	33.1	110
3	217422	33.485	120
3	217599	33.5	120
3	217614	33.5	130
3	220800	33.884	20
3	220989	33.9	30
3	223176	34.1	40
3	224506	34.3	50
3	225658	34.5	60
3	229573	34.883	70
3	229810	34.9	80
3	232293	35.1	90
3	233825	35.3	100
3	235813	35.5	100
3	235828	35.5	110
3	237485	35.7	20
3	238689	35.9	30
3	241182	36.1	40
3	243495	36.486	50
3	243650	36.5	60
3	245912	36.7	70
3	248130	36.9	80
3	250458	37.1	90
3	253692	37.483	100
3	253875	37.5	100
3	253890	37.5	110
3	257345	37.883	20
3	257536	37.9	30
3	259510	38.1	40
3	261319	38.3	50
3	262822	38.5	60
3	264148	38.7	70
3	266375	38.9	80
3	270928	39.5	80
3	271977	39.563	90
3	271977	39.563	100
3	271977	39.563	110
3	273596	39.7	40
3	275815	39.9	50
3	277642	40.1	60
3	279423	40.3	70
3	282653	40.685	80
3	282844	40.7	90
3	284500	40.9	100
3	287911	41.284	110
3	288140	41.3	120
3	290199	41.5	120
3	290214	41.5	130
3	291816	41.7	20
3	293804	41.9	30
3	295564	42.1	40
3	297337	42.3	50
3	299277	42.5	60
3	300949	42.7	70
3	302325	42.9	80
3	303551	43.1	90
3	305486	43.3	100
3	307817	43.5	100
3	307832	43.5	110
3	309623	43.7	30
3	311763	43.9	40
3	313694	44.1	50
3	316943	44.481	60
3	318853	44.681	70
3	319066	44.7	80
3	320749	44.9	90
3	322005	45.1	100
3	323680	45.3	110
3	324980	45.5	110
3	324995	45.5	120
3	327236	45.7	50
3	329586	45.9	60
3	331976	46.1	70
3	333580	46.3	80
3	334899	46.5	90
3	337289	46.7	100
3	339268	46.9	110
3	341101	47.1	120
3	342603	47.3	130
3	344333	47.5	130
3	344348	47.5	140
3	346367	47.7	30
3	348360	47.9	40
3	350187	48.1	50
3	351694	48.3	60
3	353165	48.5	70
3	354908	48.7	80
3	356457	48.9	90
3	358912	49.1	100
3	360474	49.3	110
3	362151	49.5	110
3	362166	49.5	120
3	364585	49.7	40
3	366523	49.9	50
3	368362	50.1	60
3	370149	50.3	70
3	371934	50.5	80
3	373715	50.7	90
3	375504	50.9	100
3	377329	51.1	110
3	378558	51.3	120
3	379696	51.5	120
3	379711	51.5	130
3	381797	51.7	40
3	383402	51.9	50
3	385327	52.1	60
3	387615	52.3	70
3	389977	52.5	80
3	391683	52.7	90
3	393609	52.9	100
3	395466	53.1	110
3	397253	53.3	120
3	399022	53.5	120
3	399037	53.5	130
3	400892	53.7	20
3	402412	53.9	30
3	404442	54.1	40
3	406309	54.3	50
3	408098	54.5	60
3	410764	54.883	70
3	413033	55.086	80
3	413214	55.1	90
3	415065	55.3	100
3	416543	55.5	100
3	416558	55.5	110
3	418597	55.7	40
3	420224	55.9	50
3	422529	56.1	60
3	424478	56.3	70
3	425988	56.5	80
3	429509	56.884	90
3	429704	56.9	100
3	431670	57.1	110
3	434383	57.485	120
3	434544	57.5	120
3	434559	57.5	130
3	436458	57.7	30
3	438782	57.9	40
3	440511	58.1	50
3	445996	58.77	60
3	445996	58.77	70
3	445996	58.77	80
3	447573	58.9	90
3	449810	59.1	100
3	452480	59.485	110
3	452781	59.5	110
3	452797	59.5	120
3	454351	59.7	30
3	455840	59.9	40
3	457610	60.1	50
3	460252	60.3	60
3	466753	61.103	70
3	466753	61.103	80
3	466753	61.103	90
3	466753	61.103	100
3	468853	61.3	110
3	471021	61.5	110
3	471036	61.5	120
3	473395	61.7	20
3	475334	61.9	30
3	477189	62.1	40
3	478972	62.3	50
3	481628	62.683	60
3	481801	62.7	70
3	484033	62.9	80
3	486172	63.1	90
3	487718	63.3	100
3	489531	63.5	100
3	492500	63.967	10
3	492500	63.967	20
3	492500	63.967	30
3	496485	64.281	40
3	496674	64.3	50
3	498658	64.5	60
3	500120	64.7	70
3	501316	64.9	80
3	503895	65.1	90
3	506007	65.3	100
3	507907	65.5	100
3	507927	65.5	110
3	509530	65.7	20
3	511012	65.9	30
3	513301	66.1	40
3	514702	66.3	50
3	517499	66.684	60
3	517644	66.7	70
3	520371	66.9	80
3	522506	67.1	90
3	525738	67.484	100
3	525917	67.5	100
3	525932	67.5	110
3	527934	67.7	20
3	529739	67.9	30
3	531289	68.1	40
3	532755	68.3	50
3	535014	68.5	60
3	536684	68.7	70
3	538127	68.9	80
3	539255	69.1	90
3	543392	69.482	100
3	543711	69.5	100
3	543726	69.5	110
3	546092	69.7	20
3	547748	69.9	30
3	549722	70.1	40
3	551527	70.3	50
3	554751	70.687	60
3	554942	70.7	70
3	556591	70.9	80
3	558655	71.1	90
3	560526	71.3	100
3	562301	71.5	100
3	562316	71.5	110
3	564169	71.7	20
3	565956	71.9	30
3	568960	72.287	40
3	569133	72.3	50
3	570601	72.5	60
3	572066	72.7	70
3	573666	72.9	80
3	574901	73.1	90
3	576017	73.3	100
3	577135	73.5	100
3	577150	73.5	110
3	578965	73.7	50
3	581019	73.9	60
3	582505	74.1	70
3	583951	74.3	80
3	585391	74.5	90
3	586831	74.7	100
3	588269	74.9	110
3	589759	75.1	120
3	591199	75.3	130
3	592623	75.5	130
3	592637	75.5	140
3	593846	75.7	20
3	595239	75.9	30
3	596845	76.1	40
3	598253	76.3	50
3	599908	76.5	60
3	601444	76.7	70
3	602888	76.9	80
3	604374	77.1	90
3	605812	77.3	100
3	607242	77.5	100
3	607256	77.5	110
3	608740	77.7	120
3	610178	77.9	30
3	611664	78.1	40
3	612957	78.3	50
3	614524	78.5	60
3	615721	78.7	70
3	617368	78.9	80
3	618942	79.1	90
3	620376	79.3	100
3	621808	79.5	100
3	621822	79.5	110
3	623306	79.7	20
3	626491	80.127	30
3	627785	80.309	40
3	627785	80.309	50
3	629106	80.5	60
3	632090	80.98	70
3	632090	80.98	80
3	633120	81.1	90
3	634983	81.3	100
3	636452	81.5	100
3	636466	81.5	110
3	637948	81.7	20
3	639239	81.9	30
3	640858	82.1	40
3	642328	82.3	50
3	643766	82.5	60
3	645055	82.7	70
3	646628	82.9	80
3	648138	83.1	90
3	649576	83.3	100
3	651010	83.5	100
3	651024	83.5	110
3	652510	83.7	20
3	653797	83.9	30
3	655404	84.1	40
3	656882	84.3	50
3	657767	84.5	60
3	659089	84.7	70
3	660760	84.9	80
3	663894	85.284	90
3	664061	85.3	100
3	665646	85.5	100
3	665660	85.5	110
3	667156	85.7	20
3	668445	85.9	30
3	670066	86.1	40
3	671538	86.3	50
3	672696	86.5	60
3	674073	86.7	70
3	675821	86.9	80
3	677387	87.1	90
3	679877	87.483	100
3	680034	87.5	100
3	680048	87.5	110
3	681789	87.7	20
3	683251	87.9	30
3	684739	88.1	40
3	686177	88.3	50
3	687615	88.5	60
3	689051	88.7	70
3	690487	88.9	80
3	691981	89.1	90
3	693421	89.3	100
3	694853	89.5	100
3	694867	89.5	110
3	696075	89.7	20
3	697714	89.9	30
3	699304	90.1	40
3	700744	90.3	50
3	701758	90.5	60
3	703543	90.7	70
3	705092	90.9	80
3	707421	91.283	90
3	707590	91.3	100
3	709360	91.5	100
3	709374	91.5	110
3	710819	91.7	20
3	712408	91.9	30
3	713904	92.1	40
3	715079	92.3	50
3	716718	92.5	60
3	718095	92.7	70
3	719655	92.9	80
3	721182	93.1	90
3	722626	93.3	100
3	724056	93.5	100
3	724070	93.5	110
3	725550	93.7	120
3	726986	93.9	30
3	728474	94.1	40
3	729916	94.3	50
3	731356	94.5	60
3	732794	94.7	70
3	734226	94.9	80
3	735720	95.1	90
3	737158	95.3	100
3	738594	95.5	100
3	738608	95.5	110
3	740090	95.7	20
3	741528	95.9	30
3	743024	96.1	40
3	744460	96.3	50
3	745898	96.5	60
3	747340	96.7	70
3	748780	96.9	80
3	750260	97.1	90
3	751549	97.3	100
3	753098	97.5	100
3	753117	97.5	110
3	754640	97.7	20
3	756080	97.9	30
3	758334	98.284	40
3	758485	98.3	50
3	760404	98.5	60
3	761955	98.7	70
3	763118	98.9	80
3	764563	99.1	90
3	766157	99.3	100
3	767795	99.5	100
3	767809	99.5	110
3	769291	99.7	20
3	770737	99.9	30
3	772223	100.1	40
3	773655	100.3	50
3	774948	100.5	60
3	776509	100.7	70
3	777995	100.9	80
3	779479	101.1	90
3	781794	101.5	90
3	782560	101.572	100
3	782560	101.572	110
3	783615	101.7	30
3	785319	101.9	40
3	786805	102.1	50
3	788243	102.3	60
3	789679	102.5	70
3	791127	102.7	80
3	792565	102.9	90
3	793776	103.1	100
3	795145	103.3	110
3	796868	103.5	110
3	796882	103.5	120
3	798464	103.7	20
3	799914	103.9	30
3	801398	104.1	40
3	802840	104.3	50
3	805382	104.684	60
3	805553	104.7	70
3	806983	104.9	80
3	808638	105.1	90
3	810096	105.3	100
3	811530	105.5	100
3	811544	105.5	110
3	813026	105.7	20
3	814313	105.9	30
3	815928	106.1	40
3	818520	106.484	50
3	818693	106.5	60
3	821404	106.884	70
3	821573	106.9	80
3	823208	107.1	90
3	825469	107.482	100
3	825672	107.5	100
3	825686	107.5	110
3	827325	107.7	20
3	830244	108.086	30
3	831649	108.282	40
3	831842	108.3	50
3	833460	108.5	60
3	835749	108.882	70
3	837453	109.084	80
3	837644	109.1	90
3	839300	109.3	100
3	840754	109.5	100
3	840768	109.5	110
3	844114	109.985	20
3	844114	109.985	30
3	845016	110.1	40
3	846620	110.3	50
3	849180	110.683	60
3	849351	110.7	70
3	852088	111.083	80
3	852269	111.1	90
3	853878	111.3	100
3	855336	111.5	100
3	855350	111.5	110
3	857946	111.882	20
3	858121	111.9	30
3	859744	112.1	40
3	861206	112.3	50
3	863762	112.684	60
3	863933	112.7	70
3	865520	112.9	80
3	867028	113.1	90
3	868454	113.3	100
3	869888	113.5	100
3	871066	113.683	10
3	871243	113.7	20
3	872815	113.9	30
3	874054	114.1	40
3	875657	114.3	50
3	877239	114.5	60
3	878677	114.7	70
3	880113	114.9	80
3	881323	115.1	90
3	882732	115.3	100
3	884357	115.5	100
3	884371	115.5	110
3	886033	115.7	20
3	887479	115.9	30
3	890081	116.285	40
3	890256	116.3	50
3	892961	116.687	60
3	893132	116.7	70
3	894722	116.9	80
3	896231	117.1	90
3	897669	117.3	100
3	899099	117.5	100
3	899113	117.5	110
3	900597	117.7	20
3	901760	117.9	30
3	903461	118.1	40
3	904973	118.3	50
3	906145	118.5	60
3	907792	118.7	70
3	909054	118.9	80
3	910719	119.1	90
3	912020	119.3	100
3	913651	119.5	100
3	913665	119.5	110
3	915241	119.7	20
3	916671	119.9	30
3	917885	120.1	40
3	919534	120.3	50
3	920792	120.5	60
3	922445	120.7	70
3	923993	120.9	80
3	925187	121.1	90
3	928024	121.486	100
3	928205	121.5	100
3	928220	121.5	110
3	929323	121.7	20
3	930762	121.9	30
3	932579	122.1	40
3	934254	122.3	50
3	935776	122.5	60
3	937212	122.7	70
3	938652	122.9	80
3	940142	123.1	90
3	941572	123.3	100
3	943014	123.5	100
3	943028	123.5	110
3	944506	123.7	20
3	945946	123.9	30
3	947281	124.1	40
3	948838	124.3	50
3	950322	124.5	60
3	951756	124.7	70
3	952926	124.9	80
3	954469	125.1	90
3	955998	125.3	100
3	957589	125.5	100
3	957603	125.5	110
3	959115	125.7	20
3	960565	125.9	30
3	961780	126.1	40
3	963431	126.3	50
3	964947	126.5	60
3	967200	126.887	70
3	967373	126.9	80
3	969241	127.1	90
3	970789	127.3	100
3	972217	127.5	100
3	972231	127.5	110
3	973287	127.7	20
3	975078	127.9	30
3	976673	128.1	40
3	978105	128.3	50
3	979549	128.5	60
3	980989	128.7	70
3	983593	129.086	80
3	983764	129.1	90
3	985335	129.3	100
3	986482	129.5	100
3	986495	129.5	110
3	987623	129.7	120
3	989530	130.084	130
3	989701	130.1	140
3	990660	130.3	150
3	991975	130.5	160
3	993178	130.7	170
3	994269	130.9	180
3	995416	131.1	190
3	996511	131.3	200
3	997594	131.5	200
3	998401	131.684	10
3	998569	131.7	20
3	999813	131.9	30
3	1000970	132.1	40
3	1002061	132.3	50
3	1003162	132.5	60
3	1004255	132.7	70
3	1005354	132.9	80
3	1006491	133.1	90
3	1007586	133.3	100
3	1008673	133.5	100
3	1008686	133.5	110
3	1009807	133.7	20
3	1010892	133.9	30
3	1012041	134.1	40
3	1013130	134.3	50
3	1013947	134.5	60
3	1016120	134.888	70
3	1016290	134.9	80
3	1017568	135.1	90
3	1018691	135.3	100
3	1019492	135.5	100
3	1019505	135.5	110
3	1020830	135.7	30
3	1021748	135.9	40
3	1023094	136.1	50
3	1024279	136.3	60
3	1025372	136.5	70
3	1026463	136.7	80
3	1027285	136.9	90
3	1028631	137.1	100
3	1029532	137.3	110
3	1030823	137.5	110
3	1030836	137.5	120
3	1032061	137.7	20
3	1034263	138.178	30
3	1034263	138.178	40
3	1035141	138.3	50
3	1036504	138.5	60
3	1038373	138.885	70
3	1038545	138.9	80
3	1039827	139.1	90
3	1040940	139.3	100
3	1041752	139.5	100
3	1041765	139.5	110
3	1043091	139.7	30
3	1044272	139.9	40
3	1045409	140.1	50
3	1046508	140.3	60
3	1047605	140.5	70
3	1048694	140.7	80
3	1049789	140.9	90
3	1050934	141.1	100
3	1052031	141.3	110
3	1053110	141.5	110
3	1053123	141.5	120
3	1054244	141.7	20
3	1055341	141.9	30
3	1056200	142.1	40
3	1057497	142.3	50
3	1058414	142.5	60
3	1059703	142.7	70
3	1060910	142.9	80
3	1062051	143.1	90
3	1063146	143.3	100
3	1064229	143.5	100
3	1064242	143.5	110
3	1065355	143.7	20
3	1066173	143.9	30
3	1067525	144.1	40
3	1068710	144.3	50
3	1069801	144.5	60
3	1070900	144.7	70
3	1071995	144.9	80
3	1073134	145.1	90
3	1074229	145.3	100
3	1075318	145.5	100
3	1075331	145.5	110
3	1076448	145.7	20
3	1077545	145.9	30
3	1078684	146.1	40
3	1080187	146.487	50
3	1080401	146.5	60
3	1081753	146.7	70
3	1083118	146.9	80
3	1084255	147.1	90
3	1085348	147.3	100
3	1086443	147.5	100
3	1086456	147.5	110
3	1087567	147.7	20
3	1088666	147.9	30
3	1089528	148.1	40
3	1090830	148.3	50
3	1092009	148.5	60
3	1093108	148.7	70
3	1095015	149.086	80
3	1095185	149.1	90
3	1096423	149.3	100
3	1097530	149.5	100
3	1097543	149.5	110
3	1098662	149.7	20
3	1100577	150.082	30
3	1100749	150.1	40
3	1101695	150.3	50
3	1102752	150.5	60
3	1104151	150.7	70
3	1106154	151.082	80
3	1106322	151.1	90
3	1108350	151.483	100
3	1108514	151.5	100
3	1108527	151.5	110
3	1109501	151.7	20
3	1110828	151.9	30
3	1112067	152.1	40
3	1112883	152.3	50
3	1114191	152.5	60
3	1115086	152.7	70
3	1117299	153.086	80
3	1117465	153.1	90
3	1118426	153.3	100
3	1119540	153.5	100
3	1119553	153.5	110
3	1120970	153.7	20
3	1122071	153.9	30
3	1123212	154.1	40
3	1124305	154.3	50
3	1125396	154.5	60
3	1127269	154.888	70
3	1127439	154.9	80
3	1128717	155.1	90
3	1129834	155.3	100
3	1130919	155.5	100
3	1130932	155.5	110
3	1132051	155.7	20
3	1134249	156.171	30
3	1134249	156.171	40
3	1135153	156.3	50
3	1136502	156.5	60
3	1137599	156.7	70
3	1138694	156.9	80
3	1140457	157.284	90
3	1140709	157.3	100
3	1142015	157.5	100
3	1142028	157.5	110
3	1144248	157.974	20
3	1144248	157.974	30
3	1145186	158.1	40
3	1146541	158.3	50
3	1147640	158.5	60
3	1148733	158.7	70
3	1149832	158.9	80
3	1150973	159.1	90
3	1152066	159.3	100
3	1153153	159.5	100
3	1153166	159.5	110
3	1154006	159.7	20
3	1155312	159.9	30
3	1156537	160.1	40
3	1157632	160.3	50
3	1158443	160.5	60
3	1159734	160.7	70
3	1160666	160.9	80
3	1162018	161.1	90
3	1163193	161.3	100
3	1164276	161.5	100
3	1164289	161.5	110
3	1165408	161.7	20
3	1167321	162.082	30
3	1167493	162.1	40
3	1168729	162.3	50
3	1169844	162.5	60
3	1170939	162.7	70
3	1172852	163.085	80
3	1173020	163.1	90
3	1174264	163.3	100
3	1175363	163.5	100
3	1175376	163.5	110
3	1176491	163.7	20
3	1177592	163.9	30
3	1178729	164.1	40
3	1180250	164.485	50
3	1180444	164.5	60
3	1181838	164.7	70
3	1184003	165.094	80
3	1184159	165.1	90
3	1185373	165.3	100
3	1186492	165.5	100
3	1186505	165.5	110
3	1187628	165.7	20
3	1188727	165.9	30
3	1189864	166.1	40
3	1190675	166.3	50
3	1191982	166.5	60
3	1193179	166.7	70
3	1194266	166.9	80
3	1195138	167.1	90
3	1196436	167.3	100
3	1197330	167.5	100
3	1197343	167.5	110
3	1198139	167.7	30
3	1199498	167.9	40
3	1201015	168.1	50
3	1202122	168.3	60
3	1203217	168.5	70
3	1204308	168.7	80
3	1205407	168.9	90
3	1207464	169.379	100
3	1207464	169.379	110
3	1208203	169.5	110
3	1208216	169.5	120
3	1209821	169.7	30
3	1211002	169.9	40
3	1212143	170.1	50
3	1213236	170.3	60
3	1214333	170.5	70
3	1215424	170.7	80
3	1216519	170.9	90
3	1217664	171.1	100
3	1218761	171.3	110
3	1219836	171.5	110
3	1219849	171.5	120
3	1220697	171.7	20
3	1222001	171.9	30
3	1223224	172.1	40
3	1224321	172.3	50
3	1226180	172.686	60
3	1227578	172.974	70
3	1227578	172.974	80
3	1228522	173.1	90
3	1229867	173.3	100
3	1230681	173.5	100
3	1230694	173.5	110
3	1231774	173.7	30
3	1233019	173.9	40
3	1234368	174.1	50
3	1235469	174.3	60
3	1236568	174.5	70
3	1237659	174.7	80
3	1238752	174.9	90
3	1240269	175.284	100
3	1240473	175.3	110
3	1241791	175.5	110
3	1241803	175.5	120
3	1243007	175.882	130
3	1243174	175.9	140
3	1243836	176.1	150
3	1244283	176.3	160
3	1245516	177.5	160
3	1245907	177.769	160
3	1246178	177.965	160
3	1246514	178.148	160
3	1248162	179.048	170
3	1248162	179.048	180
3	1248162	179.048	190
3	1248162	179.048	200
3	1248162	179.048	210
3	1248162	179.048	220
3	1248162	179.048	230
3	1248162	179.048	240
3	1248162	179.048	250
3	1248162	179.048	260
3	1248162	179.048	270
3	1248162	179.048	280
3	1248162	179.048	290
3	1254750	179.285	300
3	1254928	179.3	310
3	1257342	179.5	310
3	1257354	179.5	320
3	1259611	179.7	330
3	1272584	180.347	340
3	1272584	180.347	350
3	1272584	180.347	360
3	1274850	180.5	370
3	1276498	180.7	380
3	1279024	180.9	390
3	1280741	181.1	210
3	1282726	181.3	220
3	1283762	181.5	220
3	1284880	181.682	230
3	1285097	181.7	240
3	1291061	182.084	250
3	1291531	182.1	260
3	1293742	182.3	270
3	1299366	182.683	280
3	1299560	182.7	290
3	1302523	182.9	300
3	1304724	183.1	100
3	1307751	183.3	110
3	1310400	183.5	110
3	1310412	183.5	120
3	1312258	183.7	130
3	1314058	183.9	110
3	1317346	184.282	120
3	1317535	184.3	130
3	1319093	184.5	140
3	1320673	184.7	150
3	1323037	184.9	160
3	1324935	185.1	90
3	1326726	185.3	100
3	1328505	185.5	100
3	1328517	185.5	110
3	1330333	185.7	110
3	1332123	185.9	110
3	1333945	186.1	70
3	1335403	186.3	80
3	1336553	186.5	90
3	1337673	186.7	100
3	1338481	186.9	110
3	1339740	187.5	80
3	1342042	187.8	70
3	1342042	187.8	80
3	1342042	187.8	90
3	1342042	187.8	100
3	1343961	187.9	110
3	1347163	188.1	100
3	1349417	188.3	110
3	1351180	188.5	120
3	1352606	188.7	130
3	1356629	189.219	140
3	1358364	189.5	140
3	1358896	189.539	150
3	1358896	189.539	160
3	1358896	189.539	170
3	1360238	189.7	180
3	1362936	190.219	70
3	1362936	190.219	80
3	1363631	190.3	90
3	1366209	190.5	100
3	1367749	190.7	110
3	1369188	190.9	120
3	1370689	191.1	110
3	1372129	191.3	120
3	1373563	191.5	120
3	1373574	191.5	130
3	1375018	191.7	110
3	1376468	191.9	110
3	1377974	192.1	70
3	1379415	192.3	80
3	1380851	192.5	90
3	1381998	192.7	100
3	1383513	192.9	110
3	1385243	193.1	90
3	1386683	193.3	100
3	1388117	193.5	100
3	1388128	193.5	110
3	1389586	193.7	110
3	1391034	193.9	110
3	1392357	194.1	70
3	1395835	194.622	80
3	1395835	194.622	90
3	1396319	194.7	100
3	1400478	195.218	80
3	1400478	195.218	90
3	1401121	195.3	100
3	1402759	195.5	100
3	1402770	195.5	110
3	1405845	196.027	100
3	1405845	196.027	110
3	1406272	196.1	70
3	1408312	196.3	80
3	1410090	196.5	90
3	1411526	196.7	100
3	1412674	196.9	110
3	1414253	197.1	90
3	1415922	197.3	100
3	1417192	197.5	100
3	1417203	197.5	110
3	1418839	197.7	110
16	1246091	177.915	160
16	1246312	178.018	160
16	1246468	178.124	160
16	1250059	179.076	170
16	1252363	179.178	180
16	1254620	179.282	190
16	1255902	179.395	200
16	1257088	179.497	210
16	1257088	179.497	220
16	1258648	179.603	230
16	1262733	179.886	240
16	1262733	179.886	250
16	1262733	179.886	260
16	1262733	179.886	270
16	1262733	179.886	280
16	1262733	179.886	290
16	1262733	179.886	300
16	1262733	179.886	310
16	1262733	179.886	320
16	1262733	179.886	330
16	1263986	179.9	330
16	1264000	179.9	340
16	1270225	180.1	350
16	1272162	180.3	360
16	1274853	180.5	370
16	1276501	180.7	380
16	1279027	180.9	390
16	1280744	181.1	210
16	1282729	181.3	220
16	1283777	181.5	230
16	1285100	181.7	240
16	1288000	181.9	240
16	1290234	182.036	250
16	1291534	182.1	260
16	1293745	182.3	270
16	1296789	182.5	280
16	1299563	182.7	290
16	1302526	182.9	300
16	1304727	183.1	100
16	1307754	183.3	110
16	1310415	183.5	120
16	1312261	183.7	130
16	1314047	183.9	100
16	1314061	183.9	110
16	1315908	184.1	120
16	1318419	184.404	130
16	1319096	184.5	140
16	1320676	184.7	150
16	1323040	184.9	160
16	1324938	185.1	170
16	1326729	185.3	100
16	1328520	185.5	110
16	1330336	185.7	110
16	1332112	185.9	100
16	1332126	185.9	110
16	1333947	186.1	70
16	1343950	187.9	20
16	1345396	188.021	10
16	1345396	188.021	20
16	1345396	188.021	30
16	1345396	188.021	40
16	1345396	188.021	50
16	1345396	188.021	60
16	1345396	188.021	70
16	1345396	188.021	80
16	1349976	188.338	90
16	1349976	188.338	100
16	1352270	188.656	110
16	1352270	188.656	120
16	1354757	189.019	130
16	1354757	189.019	140
16	1355462	189.1	150
16	1357122	189.3	160
16	1358377	189.5	170
16	1360240	189.7	180
16	1361875	189.9	180
16	1361888	189.9	190
16	1362516	190.1	80
16	1363633	190.3	90
16	1366211	190.5	100
16	1367751	190.7	110
16	1369190	190.9	120
16	1370691	191.1	110
16	1372131	191.3	120
16	1373576	191.5	130
16	1375020	191.7	110
16	1376457	191.9	100
16	1376470	191.9	110
16	1377976	192.1	70
16	1379417	192.3	80
16	1382874	192.819	90
16	1382874	192.819	100
16	1383515	192.9	110
16	1385245	193.1	120
16	1386685	193.3	100
16	1388130	193.5	110
16	1389588	193.7	110
16	1391023	193.9	100
16	1391036	193.9	110
16	1392359	194.1	70
16	1393977	194.3	80
16	1397413	194.822	90
16	1397413	194.822	100
16	1398089	194.9	110
16	1399600	195.1	90
16	1401123	195.3	100
16	1402772	195.5	110
16	1405113	195.9	90
16	1407304	196.211	50
16	1407304	196.211	60
[...]
43	7119185	972.3	70
43	7123689	972.781	80
43	7123689	972.781	90
43	7124696	972.9	100
43	7126391	973.1	110
43	7128160	973.3	110
43	7128176	973.3	120
43	7130032	973.5	110
43	7131769	973.7	30
43	7132671	973.9	40
43	7133523	974.1	50
43	7136822	975.3	50
43	7137980	975.567	50
43	7137980	975.567	60
43	7137980	975.567	70
43	7141898	975.865	80
43	7141898	975.865	90
43	7141898	975.865	100
43	7141898	975.865	110
43	7141898	975.865	120
43	7142715	975.9	130
43	7147388	976.1	140
43	7150224	976.3	150
43	7154786	976.868	160
43	7156983	977.123	170
43	7156983	977.123	180
43	7156983	977.123	190
43	7158408	977.3	190
43	7158422	977.3	200
43	7160197	977.5	110
43	7161470	977.7	40
43	7162670	977.9	50
43	7164610	978.1	60
43	7166199	978.3	70
43	7167639	978.5	80
43	7169075	978.7	90
43	7170515	978.9	100
43	7172009	979.1	110
43	7173432	979.3	110
43	7173446	979.3	120
43	7174924	979.5	110
43	7176367	979.7	30
43	7177803	979.9	40
43	7179015	980.1	50
43	7180626	980.3	60
43	7182057	980.5	70
43	7183654	980.7	80
43	7184520	980.9	90
43	7186108	981.1	100
43	7188055	981.3	100
43	7188069	981.3	110
43	7189397	981.5	110
43	7191014	981.7	30
43	7192450	981.9	40
43	7193936	982.1	50
43	7195370	982.3	60
43	7196808	982.5	70
43	7198253	982.7	80
43	7199696	982.9	90
43	7201184	983.1	100
43	7202609	983.3	100
43	7202623	983.3	110
43	7204089	983.5	120
43	7205550	983.7	30
43	7206996	983.9	40
43	7208482	984.1	50
43	7209908	984.3	60
43	7213162	984.766	70
43	7213162	984.766	80
43	7214152	984.9	90
43	7215468	985.1	100
43	7217094	985.3	100
43	7217108	985.3	110
43	7218252	985.5	110
43	7220034	985.7	30
43	7221611	985.9	40
43	7223105	986.1	50
43	7224541	986.3	60
43	7225985	986.5	70
43	7227429	986.7	80
43	7228861	986.9	90
43	7230347	987.1	100
43	7231778	987.3	100
43	7231792	987.3	110
43	7233268	987.5	110
43	7234719	987.7	30
43	7236155	987.9	40
43	7237635	988.1	50
43	7239087	988.3	60
43	7240531	988.5	70
43	7241965	988.7	80
43	7243401	988.9	90
43	7244891	989.1	100
43	7246320	989.3	100
43	7246334	989.3	110
43	7247796	989.5	110
43	7248957	989.7	30
43	7250568	989.9	40
43	7252197	990.1	50
43	7253635	990.3	60
43	7255081	990.5	70
43	7256523	990.7	80
43	7257961	990.9	90
43	7259447	991.1	100
43	7260870	991.3	100
43	7260884	991.3	110
43	7262370	991.5	110
43	7263663	991.7	30
43	7265257	991.9	40
43	7268401	992.375	50
43	7268401	992.375	60
43	7269292	992.5	70
43	7270905	992.7	80
43	7272607	992.9	90
43	7274103	993.1	100
43	7275526	993.3	100
43	7275540	993.3	110
43	7278826	993.765	20
43	7278826	993.765	30
43	7279821	993.9	40
43	7281397	994.1	50
43	7282276	994.3	60
43	7283943	994.5	70
43	7285477	994.7	80
43	7286850	994.9	90
43	7288712	995.1	100
43	7290143	995.3	100
43	7290157	995.3	110
43	7291627	995.5	110
43	7293078	995.7	30
43	7294526	995.9	40
43	7295714	996.1	50
43	7297309	996.3	60
43	7298908	996.5	70
43	7300062	996.7	80
43	7301492	996.9	90
43	7304453	997.3	90
43	7304998	997.367	100
43	7304998	997.367	110
43	7306004	997.5	110
43	7307715	997.7	40
43	7309167	997.9	50
43	7310647	998.1	60
43	7312081	998.3	70
43	7313233	998.5	80
43	7314840	998.7	90
43	7316417	998.9	100
43	7317897	999.1	110
43	7319334	999.3	110
43	7319348	999.3	120
43	7322643	999.77	20
43	7322643	999.77	30
43	7323623	999.9	40
43	7325211	1000.1	50
43	7326365	1000.3	60
43	7329768	1000.771	70
43	7329768	1000.771	80
43	7330607	1000.9	90
43	7331571	1001.1	100
43	7332335	1001.3	100
43	7332348	1001.3	110
43	7333138	1001.5	120
43	7333777	1001.7	130
43	7335632	1001.9	140
43	7337437	1002.1	150
43	7338378	1002.3	160
43	7339457	1002.5	170
43	7340750	1002.7	180
43	7341847	1002.9	190
43	7343779	1003.3	190
43	7344255	1003.365	120
43	7344255	1003.365	130
43	7345109	1003.5	110
43	7346310	1003.7	40
43	7347265	1003.9	50
43	7348560	1004.1	60
43	7349653	1004.3	70
43	7350742	1004.5	80
43	7353449	1005.189	90
43	7354028	1005.3	90
43	7354671	1005.453	90
43	7356325	1005.72	20
43	7359222	1007.3	20
43	7361095	1008.099	110
43	7361095	1008.099	110
43	7361095	1008.099	110
43	7361095	1008.099	110
43	7361095	1008.099	110
43	7361095	1008.099	110
43	7361095	1008.099	110
43	7361095	1008.099	110
43	7361095	1008.099	110
43	7361095	1008.099	110
43	7361095	1008.099	110
43	7361095	1008.099	120
43	7361095	1008.099	130
43	7361095	1008.099	140
43	7361466	1008.1	150
43	7362446	1008.3	160
43	7363002	1008.5	170
43	7363511	1008.7	180
43	7364028	1008.9	190
43	7364874	1009.3	190
43	7365287	1009.511	200
43	7365287	1009.511	210
43	7365287	1009.511	220
43	7366416	1009.7	230
43	7367158	1009.9	240
43	7367938	1010.1	250
43	7368700	1010.3	260
43	7369490	1010.5	270
43	7370321	1010.7	280
43	7371184	1010.9	290
43	7373571	1011.1	300
43	7377383	1011.3	300
43	7377394	1011.3	310
43	7380147	1011.5	320
43	7381649	1011.7	280
43	7382817	1011.9	290
43	7384055	1012.1	300
43	7385459	1012.3	310
43	7387149	1012.5	320
43	7388804	1012.7	330
43	7393710	1013.3	330
43	7394033	1013.315	340
43	7397811	1013.731	300
43	7397811	1013.731	310
43	7414811	1014.352	320
43	7414811	1014.352	330
43	7414811	1014.352	340
43	7414811	1014.352	350
43	7414811	1014.352	360
43	7416767	1014.5	370
43	7422434	1014.7	380
43	7426092	1014.9	390
43	7428806	1015.1	400
43	7430506	1015.3	400
43	7430517	1015.3	410
43	7432460	1015.5	420
43	7437679	1016.11	390
43	7437679	1016.11	400
43	7437679	1016.11	410
43	7442277	1016.3	420
43	7445980	1016.5	430
43	7448759	1016.7	440
43	7451117	1016.9	450
43	7457456	1017.1	460
43	7462151	1017.3	460
43	7462162	1017.3	470
43	7464054	1017.5	480
43	7465857	1017.7	30
43	7467372	1017.9	40
43	7468892	1018.1	50
43	7471205	1018.3	60
43	7473077	1018.5	70
43	7474846	1018.7	80
43	7476649	1018.9	90
43	7478193	1019.1	100
43	7479877	1019.3	100
43	7479888	1019.3	110
43	7481443	1019.5	120
43	7482887	1019.7	130
43	7484025	1019.9	140
44	6739107	931.306	100
44	6742639	931.648	110
44	6745862	932.041	120
44	6749207	932.383	130
44	6753867	932.725	140
44	6759537	933.068	150
44	6759537	933.068	160
44	6759537	933.068	170
44	6759537	933.068	180
44	6759537	933.068	190
44	6759537	933.068	200
44	6759537	933.068	210
44	6759537	933.068	220
44	6765349	933.412	230
44	6765349	933.412	240
44	6765349	933.412	250
44	6766260	933.5	250
44	6769188	933.758	10
44	6769188	933.758	20
44	6769188	933.758	30
44	6769188	933.758	40
44	6770711	933.9	50
44	6772969	934.1	60
44	6774760	934.3	70
44	6776254	934.5	80
44	6778168	934.7	90
44	6782326	935.243	100
44	6782326	935.243	110
44	6782908	935.3	120
44	6785658	935.5	120
44	6785673	935.5	130
44	6790026	936.048	30
44	6792634	936.389	40
44	6792634	936.389	50
44	6792634	936.389	60
44	6793741	936.5	70
44	6796469	936.7	80
44	6798370	936.9	90
44	6800199	937.1	100
44	6801982	937.3	110
44	6803531	937.5	100
44	6806352	937.844	20
44	6806352	937.844	30
44	6807014	937.9	40
44	6809037	938.1	50
44	6810738	938.3	60
44	6812635	938.5	70
44	6814712	938.7	80
44	6816519	938.9	90
44	6818068	939.1	100
44	6819909	939.3	110
44	6821992	939.5	100
44	6822007	939.5	110
44	6823518	939.7	30
44	6825517	939.9	40
44	6830183	940.446	50
44	6830183	940.446	60
44	6830669	940.5	70
44	6832811	940.7	80
44	6834608	940.9	90
44	6836145	941.1	100
44	6837932	941.3	110
44	6839505	941.5	100
44	6839520	941.5	110
44	6840754	941.7	30
44	6843031	941.9	40
44	6845274	942.1	50
44	6847213	942.3	60
44	6853628	943.204	70
44	6854299	943.299	80
44	6854299	943.299	90
44	6854299	943.299	100
44	6854678	943.3	110
44	6858195	943.5	100
44	6858210	943.5	110
44	6859789	943.7	60
44	6861298	943.9	70
44	6866510	944.454	80
44	6869368	944.801	90
44	6869368	944.801	100
44	6869368	944.801	110
44	6873746	945.245	120
44	6873746	945.245	130
44	6874298	945.3	140
44	6876492	945.5	100
44	6876507	945.5	110
44	6878322	945.7	30
44	6879807	945.9	40
44	6881848	946.1	50
44	6883729	946.3	60
44	6885520	946.5	70
44	6887307	946.7	80
44	6889084	946.9	90
44	6890915	947.1	100
44	6892712	947.3	110
44	6894527	947.5	100
44	6894542	947.5	110
44	6896361	947.7	30
44	6898136	947.9	40
44	6899677	948.1	50
44	6901652	948.3	60
44	6903547	948.5	70
44	6905342	948.7	80
44	6907121	948.9	90
44	6908353	949.1	100
44	6910478	949.3	110
44	6912584	949.5	100
44	6912599	949.5	110
44	6914114	949.7	30
44	6916041	949.9	40
44	6918036	950.1	50
44	6919839	950.3	60
44	6921614	950.5	70
44	6923135	950.7	80
44	6924952	950.9	90
44	6929826	951.442	100
44	6929826	951.442	110
44	6930360	951.5	100
44	6933502	951.846	20
44	6933502	951.846	30
44	6934000	951.9	40
44	6936169	952.1	50
44	6940713	952.646	60
44	6940713	952.646	70
44	6941199	952.7	80
44	6943061	952.9	90
44	6944731	953.1	100
44	6948077	953.5	90
44	6949859	953.645	30
44	6949859	953.645	40
44	6950337	953.7	50
44	6952493	953.9	60
44	6954042	954.1	70
44	6956037	954.3	80
44	6957918	954.5	90
44	6959408	954.7	100
44	6961330	954.9	110
44	6962749	955.1	120
44	6966028	955.5	100
44	6967724	955.645	20
44	6967724	955.645	30
44	6968420	955.7	40
44	6970664	955.9	50
44	6972205	956.1	60
44	6974154	956.3	70
44	6977917	956.843	80
44	6977917	956.843	90
44	6978354	956.9	100
44	6980846	957.1	110
44	6983369	957.3	120
44	6984621	957.5	110
44	6984636	957.5	120
44	6989611	958.042	30
44	6989611	958.042	40
44	6993478	958.442	50
44	6996006	958.786	60
44	6996006	958.786	70
44	6996006	958.786	80
44	6997256	958.9	90
44	6999809	959.1	100
44	7001048	959.3	110
44	7002589	959.5	100
44	7002604	959.5	110
44	7005009	959.7	40
44	7007096	959.9	50
44	7008925	960.1	60
44	7010700	960.3	70
44	7012200	960.5	80
44	7014104	960.7	90
44	7015793	960.9	100
44	7017738	961.1	110
44	7019723	961.3	120
44	7021540	961.5	100
44	7021555	961.5	110
44	7023356	961.7	30
44	7025145	961.9	40
44	7026982	962.1	50
44	7028465	962.3	60
44	7030153	962.5	70
44	7032183	962.7	80
44	7034150	962.9	90
44	7035973	963.1	100
44	7037760	963.3	110
44	7039579	963.5	100
44	7039594	963.5	110
44	7041407	963.7	30
44	7043194	963.9	40
44	7044747	964.1	50
44	7046596	964.3	60
44	7048639	964.5	70
44	7050416	964.7	80
44	7052211	964.9	90
44	7054038	965.1	100
44	7055827	965.3	110
44	7057642	965.5	100
44	7057658	965.5	110
44	7059172	965.7	30
44	7060961	965.9	40
44	7063094	966.1	50
44	7064595	966.3	60
44	7066584	966.5	70
44	7068477	966.7	80
44	7070256	966.9	90
44	7072085	967.1	100
44	7075391	967.5	90
44	7077104	967.752	10
44	7077104	967.752	20
44	7077104	967.752	30
44	7078368	967.9	40
44	7080337	968.1	50
44	7085498	968.644	60
44	7085498	968.644	70
44	7085944	968.7	80
44	7087984	968.9	90
44	7092835	969.444	100
44	7092835	969.444	110
44	7093233	969.5	110
44	7093248	969.5	120
44	7094976	969.7	30
44	7096761	969.9	40
44	7098532	970.1	50
44	7100939	970.3	60
44	7102727	970.5	70
44	7103938	970.7	80
44	7106155	970.9	90
44	7107834	971.1	100
44	7109872	971.3	110
44	7111549	971.5	100
44	7111564	971.5	110
44	7113433	971.7	40
44	7115710	971.9	50
44	7117377	972.1	60
44	7119186	972.3	70
44	7121269	972.5	80
44	7122753	972.7	90
44	7124697	972.9	100
44	7126392	973.1	110
44	7128177	973.3	120
44	7130018	973.5	100
44	7130033	973.5	110
44	7131770	973.7	30
44	7132672	973.9	40
44	7133524	974.1	50
44	7134326	974.3	60
44	7134835	974.5	70
44	7135719	975.1	80
44	7135719	975.1	90
44	7135719	975.1	100
44	7136837	975.3	110
44	7137589	975.5	100
44	7137603	975.5	110
44	7140027	975.7	120
44	7142716	975.9	130
44	7147389	976.1	140
44	7150225	976.3	150
44	7152528	976.5	160
44	7154038	976.7	170
44	7155046	976.9	180
44	7156616	977.1	190
44	7158423	977.3	200
44	7160184	977.5	100
44	7160198	977.5	110
44	7162315	977.831	40
44	7162671	977.9	50
44	7164611	978.1	60
44	7166200	978.3	70
44	7167640	978.5	80
44	7169076	978.7	90
44	7170516	978.9	100
44	7172010	979.1	110
44	7173447	979.3	120
44	7174911	979.5	100
44	7174925	979.5	110
44	7176368	979.7	30
44	7177804	979.9	40
44	7179016	980.1	50
44	7181702	980.43	60
44	7182058	980.5	70
44	7183655	980.7	80
44	7185619	981.03	90
44	7186109	981.1	100
44	7189028	981.428	100
44	7189384	981.5	100
44	7189398	981.5	110
44	7191015	981.7	30
44	7192451	981.9	40
44	7193937	982.1	50
44	7195371	982.3	60
44	7196809	982.5	70
44	7198254	982.7	80
44	7199697	982.9	90
44	7201185	983.1	100
44	7202624	983.3	110
44	7204076	983.5	100
44	7204090	983.5	110
44	7205551	983.7	30
44	7206997	983.9	40
44	7208483	984.1	50
44	7210852	984.431	60
44	7211203	984.5	70
44	7212500	984.7	80
44	7214153	984.9	90
44	7215469	985.1	100
44	7217965	985.429	100
44	7218239	985.5	100
44	7218253	985.5	110
44	7220035	985.7	30
44	7221612	985.9	40
44	7223106	986.1	50
44	7224542	986.3	60
44	7225986	986.5	70
44	7227430	986.7	80
44	7228862	986.9	90
44	7230348	987.1	100
44	7231793	987.3	110
44	7233255	987.5	100
44	7233269	987.5	110
44	7234720	987.7	30
44	7236156	987.9	40
44	7237636	988.1	50
44	7239088	988.3	60
44	7240532	988.5	70
44	7241966	988.7	80
44	7243402	988.9	90
44	7244892	989.1	100
44	7246335	989.3	110
44	7247783	989.5	100
44	7247797	989.5	110
44	7248958	989.7	30
44	7250569	989.9	40
44	7252198	990.1	50
44	7253636	990.3	60
44	7255082	990.5	70
44	7256524	990.7	80
44	7257962	990.9	90
44	7259448	991.1	100
44	7260885	991.3	110
44	7262357	991.5	100
44	7263295	991.629	20
44	7263664	991.7	30
44	7265258	991.9	40
44	7266456	992.1	50
44	7267814	992.3	60
44	7270456	992.629	70
44	7270906	992.7	80
44	7272608	992.9	90
44	7274104	993.1	100
44	7275541	993.3	110
44	7276997	993.5	100
44	7277011	993.5	110
44	7278173	993.7	30
44	7279822	993.9	40
44	7281398	994.1	50
44	7282277	994.3	60
44	7283944	994.5	70
44	7285478	994.7	80
44	7286851	994.9	90
44	7288713	995.1	100
44	7290158	995.3	110
44	7291614	995.5	100
44	7291628	995.5	110
44	7293079	995.7	30
44	7294527	995.9	40
44	7295715	996.1	50
44	7297310	996.3	60
44	7298909	996.5	70
44	7301118	996.831	80
44	7301493	996.9	90
44	7303322	997.1	100
44	7305473	997.428	100
44	7305991	997.5	100
44	7306005	997.5	110
44	7307716	997.7	40
44	7309168	997.9	50
44	7310648	998.1	60
44	7312082	998.3	70
44	7313234	998.5	80
44	7314841	998.7	90
44	7316418	998.9	100
44	7317898	999.1	110
44	7319349	999.3	120
44	7320805	999.5	100
44	7320819	999.5	110
44	7321977	999.7	30
44	7323624	999.9	40
44	7325212	1000.1	50
44	7326366	1000.3	60
44	7327949	1000.5	70
44	7329286	1000.7	80
44	7330608	1000.9	90
44	7331572	1001.1	100
44	7332349	1001.3	110
44	7333126	1001.5	110
44	7333563	1001.629	120
44	7333778	1001.7	130
44	7335633	1001.9	140
44	7338123	1002.236	150
44	7339257	1002.456	160
44	7339458	1002.5	170
44	7340751	1002.7	180
44	7341848	1002.9	190
44	7342985	1003.1	200
44	7343793	1003.3	210
44	7345097	1003.5	100
44	7345110	1003.5	110
44	7346978	1003.828	40
44	7347266	1003.9	50
44	7348561	1004.1	60
44	7349654	1004.3	70
44	7350743	1004.5	80
44	7351554	1004.7	90
44	7352304	1004.9	100
44	7353084	1005.1	110
44	7354042	1005.3	120
44	7354957	1005.5	100
44	7354970	1005.5	110
44	7356136	1005.7	50
44	7356977	1005.9	60
44	7357499	1006.1	70
44	7357929	1006.3	80
44	7358364	1006.5	90
44	7359234	1007.3	100
44	7359234	1007.3	110
44	7359234	1007.3	120
44	7359234	1007.3	130
44	7360603	1007.5	110
44	7363713	1008.71	110
44	7364233	1008.912	110
44	7364702	1009.113	110
44	7364979	1009.315	110
44	7365174	1009.5	110
44	7365661	1009.52	110
44	7366686	1009.721	110
44	7367412	1009.923	110
44	7368204	1010.125	110
44	7368973	1010.326	110
44	7369791	1010.531	110
44	7370623	1010.732	110
44	7371499	1010.933	120
44	7371499	1010.933	130
44	7371499	1010.933	140
44	7371499	1010.933	150
44	7371499	1010.933	160
44	7371499	1010.933	170
44	7374375	1011.135	180
44	7374375	1011.135	190
44	7374375	1011.135	200
44	7374375	1011.135	210
44	7374375	1011.135	220
44	7374375	1011.135	230
44	7374375	1011.135	240
44	7374375	1011.135	250
44	7374375	1011.135	260
44	7374375	1011.135	270
44	7378549	1011.337	280
44	7378549	1011.337	290
44	7378549	1011.337	300
44	7378549	1011.337	310
44	7380136	1011.5	310
44	7380148	1011.5	320
44	7381650	1011.7	280
44	7382818	1011.9	290
44	7384056	1012.1	300
44	7385460	1012.3	310
44	7387150	1012.5	320
44	7388805	1012.7	330
44	7390581	1012.9	340
44	7392181	1013.1	350
44	7393722	1013.3	360
44	7395505	1013.5	330
44	7395518	1013.5	340
44	7397430	1013.7	330
44	7404440	1013.9	340
44	7410938	1014.1	350
44	7414302	1014.3	360
44	7416768	1014.5	370
44	7422435	1014.7	380
44	7426093	1014.9	390
44	7428807	1015.1	400
44	7430518	1015.3	410
44	7432448	1015.5	370
44	7432461	1015.5	380
44	7434218	1015.7	390
44	7435853	1015.9	400
44	7444017	1016.332	410
44	7444017	1016.332	420
44	7445981	1016.5	430
44	7448760	1016.7	440
44	7451118	1016.9	450
44	7457457	1017.1	460
44	7462163	1017.3	470
44	7464043	1017.5	110
44	7464055	1017.5	120
44	7465858	1017.7	30
44	7467373	1017.9	40
44	7468893	1018.1	50
44	7471206	1018.3	60
44	7473078	1018.5	70
44	7474847	1018.7	80
44	7476650	1018.9	90
44	7478194	1019.1	100
44	7479889	1019.3	110
44	7481432	1019.5	110
44	7481444	1019.5	120
44	7484449	1019.903	130
44	7484449	1019.903	140
45	7365149	1009.428	110
45	7366343	1009.684	110
45	7367486	1009.939	110
45	7368429	1010.192	110
45	7369387	1010.447	110
45	7370517	1010.701	110
45	7372339	1010.955	110
45	7376315	1011.211	110
45	7377382	1011.3	110
45	7379906	1011.468	110
45	7382027	1011.724	60
45	7383458	1011.979	60
45	7384991	1012.237	70
45	7386923	1012.49	80
45	7389446	1012.751	90
45	7391495	1013.005	100
45	7393333	1013.258	110
45	7393709	1013.3	110
45	7395789	1013.511	100
45	7395789	1013.511	110
45	7400646	1013.767	90
45	7400646	1013.767	100
45	7407697	1014.023	110
45	7407697	1014.023	120
45	7407697	1014.023	130
45	7407697	1014.023	140
45	7407697	1014.023	150
45	7407697	1014.023	160
45	7407697	1014.023	170
45	7407697	1014.023	180
45	7407697	1014.023	190
45	7407697	1014.023	200
45	7407697	1014.023	210
45	7407697	1014.023	220
45	7414037	1014.279	230
45	7417265	1014.531	240
45	7417265	1014.531	250
45	7417265	1014.531	260
45	7417265	1014.531	270
45	7417265	1014.531	280
45	7417265	1014.531	290
45	7417265	1014.531	300
45	7417265	1014.531	310
45	7419673	1014.567	320
45	7419673	1014.567	330
45	7424540	1014.821	340
45	7424540	1014.821	350
45	7424540	1014.821	360
45	7424540	1014.821	370
45	7424540	1014.821	380
45	7426096	1014.9	390
45	7428810	1015.1	400
45	7430505	1015.3	400
45	7430521	1015.3	410
45	7432464	1015.5	380
45	7434221	1015.7	390
45	7435856	1015.9	400
45	7437337	1016.1	410
45	7442281	1016.3	420
45	7449989	1016.766	430
45	7454872	1017.019	440
45	7454872	1017.019	450
45	7457460	1017.1	460
45	7462150	1017.3	460
45	7462166	1017.3	470
45	7464058	1017.5	120
45	7465861	1017.7	30
45	7467376	1017.9	40
45	7468896	1018.1	50
45	7471209	1018.3	60
45	7473081	1018.5	70
45	7474850	1018.7	80
45	7478840	1019.153	90
45	7478840	1019.153	100
45	7479876	1019.3	100
45	7479891	1019.3	110
45	7481446	1019.5	120
45	7482890	1019.7	130
45	7484028	1019.9	140
46	7365158	1009.442	110
46	7366631	1009.711	110
46	7367595	1009.978	110
46	7368611	1010.246	110
46	7369730	1010.516	110
46	7370858	1010.788	110
46	7373166	1011.054	110
46	7377381	1011.3	110
46	7377894	1011.324	110
46	7381222	1011.593	60
46	7382656	1011.867	60
46	7384466	1012.133	60
46	7386328	1012.405	70
46	7388519	1012.674	80
46	7390947	1012.942	90
46	7392937	1013.208	100
46	7393708	1013.3	100
46	7395221	1013.476	110
46	7398133	1013.747	70
46	7398133	1013.747	80
46	7398133	1013.747	90
46	7398133	1013.747	100
46	7398133	1013.747	110
46	7398133	1013.747	120
46	7398133	1013.747	130
46	7398133	1013.747	140
46	7398133	1013.747	150
46	7398133	1013.747	160
46	7398133	1013.747	170
46	7398133	1013.747	180
46	7398133	1013.747	190
46	7398133	1013.747	200
46	7398133	1013.747	210
46	7398133	1013.747	220
46	7398133	1013.747	230
46	7398133	1013.747	240
46	7398133	1013.747	250
46	7398133	1013.747	260
46	7407056	1014.014	270
46	7407056	1014.014	280
46	7407056	1014.014	290
46	7407056	1014.014	300
46	7407056	1014.014	310
46	7417266	1014.531	320
46	7417266	1014.531	330
46	7417266	1014.531	340
46	7417266	1014.531	350
46	7417266	1014.531	360
46	7424185	1014.799	370
46	7424185	1014.799	380
46	7426095	1014.9	390
46	7428809	1015.1	400
46	7430504	1015.3	400
46	7430520	1015.3	410
46	7432463	1015.5	420
46	7434220	1015.7	390
46	7435855	1015.9	400
46	7437336	1016.1	410
46	7442280	1016.3	420
46	7445983	1016.5	430
46	7448762	1016.7	440
46	7451120	1016.9	450
46	7457459	1017.1	460
46	7462149	1017.3	460
46	7462165	1017.3	470
46	7464057	1017.5	480
46	7465860	1017.7	30
46	7467375	1017.9	40
46	7468895	1018.1	50
46	7471208	1018.3	60
46	7473080	1018.5	70
46	7474849	1018.7	80
46	7476652	1018.9	90
46	7478195	1019.1	100
46	7479875	1019.3	100
46	7479890	1019.3	110
46	7481445	1019.5	120
46	7482889	1019.7	130
46	7484027	1019.9	140

