version 2
run FastSMR-3-20181114-02:22:35-5520
attr configname FastSMR
attr datetime 20181114-02:22:35
attr experiment FastSMR
attr inifile omnetpp.ini
attr iterationvars "$GCCycleForLatency=4000, $GC=true"
attr iterationvarsf GCCycleForLatency=4000,GC=true-
attr measurement "$GCCycleForLatency=4000, $GC=true"
attr network abstract.FastSMRModel
attr processid 5520
attr repetition 0
attr replication #0
attr resultdir results
attr runnumber 3
attr seedset 3
itervar GC true
itervar GCCycleForLatency 4000
param FastSMRModel.client_num 10
param FastSMRModel.logical_computer "\"client[0]\""
param **.globalParameters.max_distance 20000000m
param **.globalParameters.fix_latency 100ms
param **.globalParameters.latency_gen_mode 0
param **.globalStatistics.cool_down 10s
param **.underlayConfigurator.lcType "\"abstract.LogicComputer\""
param **.underlayConfigurator.lcName "\"logicComputer\""
param **.underlayConfigurator.nodeType "\"hosts.Node\""
param **.underlayConfigurator.nodeName "\"node\""
param **.underlayConfigurator.clientType "\"hosts.Client\""
param **.underlayConfigurator.clientName "\"client\""
param **.client[*].ctrl.initJoinTime 3000ms
param **.client[*].ctrl.loadCycle 500ms
param **.client[*].ctrl.discoveryCycle 1000ms
param **.client[*].ctrl.deviate false
param **.node[*].IPInterface "\"IPAddress\""
param **.node[*].HBcycle 1000ms
param **.node[*].ctrl.roundCycle 200ms
param **.node[*].ctrl.cycleStart 4000ms
param **.node[*].ctrl.GCCycle 4000ms
param **.node[*].ctrl.GC true
param **.rendezvous.ctrl.cycle 1000ms
param **.rendezvous.ctrl.starttime 5000ms
param **.rendezvous.replicaNumPolicyModule "\"replication\""
param **.rendezvous.replication.threshold 3
param **.rendezvous.replication.max_replica 5
param **.clock.err_mean 74ms
param **.clock.err_std 175ms
param **.pktLossRate 0.01
param **.Copt 200000000mps
param **.BW 1.04858e6bps
param **.MTU 12144b
param **.jitter_mu 1
param **.jitter_sigma 0.5
param **.Dmin 50ms
param **.jitter 50ms
param **.churnGeneratorModule "\"churnGenerator\""
param **.churnGenerator.stable_fraction 0.2
param **.churnGenerator.stable_mean 9000000ms
param **.churnGenerator.sessionLenShape 0.38
param **.churnGenerator.sessionLenScale 42.4
param **.churnGenerator.sessionLenMin 10s
param **.churnGenerator.sessionLength 30min
param **.churnGenerator.scan_cycle 100ms
param **.churnGenerator.life_span_min 10s
param **.churnGenerator.life_span_max 200s
param **.coordinator.locXMax 750
param **.coordinator.locYMax 550
param **.coordinator.locXMin 200
param **.coordinator.locYMin 50
param **.coordinator.LCXMax 1050
param **.coordinator.LCYMax 550
param **.coordinator.LCXMin 850
param **.coordinator.LCYMin 50
param **.coordinator.percept_radius 1000

vector 0 FastSMRModel.client[7] IndividualInteractionLatency:vector ETV
attr source latency
attr title "Individual Interaction Latency, vector"
vector 1 FastSMRModel.logicComputer[0].node[0] QdLengthVector:vector ETV
attr source QdLength
attr title "Qd Length, vector"
vector 2 FastSMRModel.logicComputer[0].node[1] QdLengthVector:vector ETV
attr source QdLength
attr title "Qd Length, vector"
vector 3 FastSMRModel.client[5] IndividualInteractionLatency:vector ETV
attr source latency
attr title "Individual Interaction Latency, vector"
vector 4 FastSMRModel.client[0] IndividualInteractionLatency:vector ETV
attr source latency
attr title "Individual Interaction Latency, vector"
vector 5 FastSMRModel.client[2] IndividualInteractionLatency:vector ETV
attr source latency
attr title "Individual Interaction Latency, vector"
vector 6 FastSMRModel.client[6] IndividualInteractionLatency:vector ETV
attr source latency
attr title "Individual Interaction Latency, vector"
vector 7 FastSMRModel.client[9] IndividualInteractionLatency:vector ETV
attr source latency
attr title "Individual Interaction Latency, vector"
vector 8 FastSMRModel.client[3] IndividualInteractionLatency:vector ETV
attr source latency
attr title "Individual Interaction Latency, vector"
vector 9 FastSMRModel.client[4] IndividualInteractionLatency:vector ETV
attr source latency
attr title "Individual Interaction Latency, vector"
vector 10 FastSMRModel.client[8] IndividualInteractionLatency:vector ETV
attr source latency
attr title "Individual Interaction Latency, vector"
vector 11 FastSMRModel.client[1] IndividualInteractionLatency:vector ETV
attr source latency
attr title "Individual Interaction Latency, vector"
vector 12 FastSMRModel.logicComputer[0].node[3] QdLengthVector:vector ETV
attr source QdLength
attr title "Qd Length, vector"
vector 13 FastSMRModel.logicComputer[0].node[4] QdLengthVector:vector ETV
attr source QdLength
attr title "Qd Length, vector"
vector 14 FastSMRModel.logicComputer[0].node[2] QdLengthVector:vector ETV
attr source QdLength
attr title "Qd Length, vector"
12	6699	10.319	20
12	10682	10.737	30
12	10682	10.737	40
12	10682	10.737	50
12	10682	10.737	60
12	12625	10.9	70
12	14742	11.1	80
12	16527	11.3	90
12	18036	11.5	100
12	19680	11.7	110
12	21800	11.9	120
12	23745	12.1	130
12	25361	12.3	140
12	27311	12.5	150
12	29112	12.7	160
12	30750	12.9	170
12	32742	13.1	180
12	34204	13.3	190
12	36184	13.5	190
12	36199	13.5	200
12	38186	13.7	210
12	39969	13.9	30
12	41794	14.1	40
12	43049	14.3	50
12	44044	14.5	60
12	46324	14.7	70
12	48435	14.9	80
12	50678	15.1	90
12	52643	15.3	100
12	53581	15.5	110
12	54411	15.7	120
12	56972	15.9	130
12	59613	16.1	140
12	61684	16.3	150
12	63473	16.5	160
12	65249	16.7	170
12	66523	16.9	180
12	71880	17.5	180
12	72579	17.52	190
12	75874	17.94	20
12	75874	17.94	30
12	75874	17.94	40
12	81507	18.542	50
12	81507	18.542	60
12	81507	18.542	70
12	81507	18.542	80
12	83169	18.7	90
12	85234	18.9	100
12	87071	19.1	110
12	88852	19.3	120
12	90319	19.5	130
12	97144	20.346	140
12	97144	20.346	150
12	97144	20.346	160
12	97144	20.346	170
12	99064	20.5	180
12	101488	20.7	190
12	103281	20.9	200
12	105106	21.1	210
12	106883	21.3	220
12	108337	21.5	220
12	108352	21.5	230
12	110257	21.7	220
12	112327	21.9	40
12	114180	22.1	50
12	115808	22.3	60
12	117270	22.5	70
12	119435	22.7	80
12	121041	22.9	90
12	122759	23.1	100
12	124986	23.3	110
12	126791	23.5	120
12	128572	23.7	130
12	130361	23.9	140
12	132196	24.1	150
12	137135	24.721	160
12	137135	24.721	170
12	137135	24.721	180
12	139019	24.9	190
12	140984	25.1	200
12	142485	25.3	210
12	144728	25.5	210
12	144743	25.5	220
12	146702	25.7	220
12	148511	25.9	30
12	150340	26.1	40
12	152119	26.3	50
12	159171	27.141	60
12	159171	27.141	70
12	159171	27.141	80
12	159171	27.141	90
12	164682	27.721	100
12	164682	27.721	110
12	164682	27.721	120
12	166094	27.9	130
12	167801	28.1	140
12	170072	28.3	150
12	171967	28.5	160
12	177174	29.126	170
12	177174	29.126	180
12	177174	29.126	190
12	178807	29.3	200
12	180960	29.5	200
12	180975	29.5	210
12	182338	29.7	220
12	183493	29.9	30
12	186187	30.1	40
12	193289	30.942	50
12	193289	30.942	60
12	193289	30.942	70
12	193289	30.942	80
12	195250	31.1	90
12	197313	31.3	100
12	199106	31.5	110
12	200881	31.7	120
12	202497	31.9	130
12	204178	32.1	140
12	205775	32.3	150
12	207419	32.5	160
12	208600	32.7	170
12	210600	32.9	180
12	213114	33.1	190
12	214833	33.3	200
12	216015	33.5	200
12	220948	33.919	30
12	220948	33.919	40
12	220948	33.919	50
12	222542	34.1	60
12	224534	34.3	70
12	226076	34.5	80
12	227381	34.7	90
12	229558	34.9	100
12	231226	35.1	110
12	233387	35.3	120
12	235221	35.5	130
12	237169	35.7	140
12	238974	35.9	150
12	240805	36.1	160
12	246200	36.718	170
12	246200	36.718	180
12	246200	36.718	190
12	247782	36.9	200
12	252798	37.5	200
12	253492	37.519	210
12	253492	37.519	220
12	253492	37.519	230
12	255079	37.7	240
12	257073	37.9	50
12	258904	38.1	60
12	260536	38.3	70
12	262484	38.5	80
12	264032	38.7	90
12	269334	39.319	100
12	269334	39.319	110
12	269334	39.319	120
12	271214	39.5	130
12	276466	40.124	140
12	276466	40.124	150
12	276466	40.124	160
12	278500	40.3	170
12	280337	40.5	180
12	282293	40.7	190
12	287603	41.325	200
12	287603	41.325	210
12	287603	41.325	220
12	289486	41.5	220
12	289501	41.5	230
12	291557	41.7	220
12	293352	41.9	30
12	295179	42.1	40
12	296657	42.3	50
12	298645	42.5	60
12	300552	42.7	70
12	302018	42.9	80
12	303851	43.1	90
12	304949	43.3	100
12	307608	43.5	110
12	309619	43.7	120
12	311402	43.9	130
12	313231	44.1	140
12	315006	44.3	150
12	316805	44.5	160
12	318582	44.7	170
12	320370	44.9	180
12	322198	45.1	190
12	323989	45.3	200
12	325762	45.5	200
12	325777	45.5	210
12	327622	45.7	220
12	329413	45.9	30
12	331067	46.1	40
12	336284	46.727	50
12	340101	47.141	60
12	340101	47.141	70
12	340101	47.141	80
12	344180	47.562	90
12	344180	47.562	100
12	344180	47.562	110
12	345351	47.7	120
12	346945	47.9	130
12	347838	48.1	140
12	349193	48.3	150
12	356256	48.92	160
12	356256	48.92	170
12	356256	48.92	180
12	358209	49.1	190
12	360200	49.3	200
12	361987	49.5	200
12	362002	49.5	210
12	363538	49.7	220
12	365562	49.9	30
12	367334	50.1	40
12	369037	50.3	50
12	370515	50.5	60
12	372764	50.7	70
12	377975	51.328	80
12	381732	51.738	90
12	381732	51.738	100
12	381732	51.738	110
12	381732	51.738	120
12	383428	51.9	130
12	385312	52.1	140
12	386776	52.3	150
12	389037	52.5	160
12	390949	52.7	170
12	392735	52.9	180
12	397046	53.5	180
12	397540	53.527	190
12	397540	53.527	200
12	397540	53.527	210
12	399456	53.7	220
12	401281	53.9	50
12	403584	54.1	60
12	405483	54.3	70
12	410661	54.929	80
12	410661	54.929	90
12	410661	54.929	100
12	416369	55.52	110
12	416369	55.52	120
12	416369	55.52	130
12	417911	55.7	140
12	419909	55.9	150
12	421750	56.1	160
12	423539	56.3	170
12	425314	56.5	180
12	429841	57.121	190
12	432534	57.5	190
12	433910	57.538	190
12	433910	57.538	200
12	438037	57.962	30
12	441521	58.393	40
12	441521	58.393	50
12	441521	58.393	60
12	441521	58.393	70
12	441521	58.393	80
12	442830	58.5	90
12	448754	59.121	100
12	448754	59.121	110
12	448754	59.121	120
12	450320	59.3	130
12	452021	59.5	140
12	454276	59.7	150
12	456028	59.9	160
12	458020	60.1	170
12	459809	60.3	180
12	461425	60.5	190
12	463367	60.7	200
12	464935	60.9	210
12	466132	61.1	220
12	468458	61.3	230
12	470617	61.5	230
12	470632	61.5	240
12	472266	61.7	220
12	473742	61.9	30
12	476051	62.1	40
12	477707	62.3	50
12	479181	62.5	60
12	480941	62.7	70
12	482318	62.9	80
12	484782	63.1	90
12	486760	63.3	100
12	488262	63.5	110
12	490517	63.7	120
12	492274	63.9	130
12	494275	64.1	140
12	496060	64.3	150
12	497841	64.5	160
12	499469	64.7	170
12	501419	64.9	180
12	503077	65.1	190
12	505027	65.3	200
12	506820	65.5	200
12	506835	65.5	210
12	508445	65.7	220
12	509309	65.9	30
12	511867	66.1	40
12	514027	66.3	50
12	515741	66.5	60
12	517058	66.7	70
12	522992	67.32	80
12	522992	67.32	90
12	522992	67.32	100
12	524523	67.5	110
12	526728	67.7	120
12	528637	67.9	130
12	530462	68.1	140
12	532243	68.3	150
12	534040	68.5	160
12	535502	68.7	170
12	537502	68.9	180
12	539447	69.1	190
12	540923	69.3	200
12	542665	69.5	200
12	542680	69.5	210
12	548487	70.12	30
12	548487	70.12	40
12	552363	70.544	50
12	552363	70.544	60
12	552363	70.544	70
12	553764	70.7	80
12	555219	70.9	90
12	556419	71.1	100
12	558797	71.3	110
12	560906	71.5	120
12	563024	71.7	130
12	564813	71.9	140
12	566642	72.1	150
12	568425	72.3	160
2	5424	10.1	30
2	6379	10.3	40
2	7460	10.5	50
2	9888	10.7	60
2	12623	10.9	70
2	14740	11.1	80
2	16525	11.3	90
2	18034	11.5	100
2	19678	11.7	110
2	21798	11.9	120
2	25131	12.285	130
2	25359	12.3	140
2	27309	12.5	150
2	29110	12.7	160
2	30748	12.9	170
2	32740	13.1	180
2	34202	13.3	190
2	36182	13.5	190
2	36197	13.5	200
2	38184	13.7	20
2	39967	13.9	30
2	45275	14.58	40
2	45275	14.58	50
2	45275	14.58	60
2	46322	14.7	70
2	48433	14.9	80
2	50676	15.1	90
2	55539	15.784	100
2	55539	15.784	110
2	58452	15.965	120
2	58452	15.965	130
2	59611	16.1	140
2	61682	16.3	150
2	63471	16.5	160
2	65247	16.7	170
2	66521	16.9	180
2	67717	17.1	190
2	70086	17.3	200
2	71878	17.5	200
2	71893	17.5	210
2	73681	17.7	40
2	75245	17.9	50
2	77274	18.1	60
2	78685	18.3	70
2	80630	18.5	80
2	83167	18.7	90
2	85232	18.9	100
2	87069	19.1	110
2	88850	19.3	120
2	90317	19.5	130
2	92181	19.7	140
2	93396	19.9	150
2	94283	20.1	160
2	96295	20.3	170
2	99062	20.5	180
2	101486	20.7	190
2	103279	20.9	200
2	105104	21.1	210
2	106881	21.3	220
2	108335	21.5	220
2	110041	21.686	20
2	110255	21.7	30
2	112325	21.9	40
2	114178	22.1	50
2	117014	22.482	60
2	117268	22.5	70
2	119433	22.7	80
2	122459	23.081	90
2	122757	23.1	100
2	124984	23.3	110
2	126789	23.5	120
2	128570	23.7	130
2	130359	23.9	140
2	132194	24.1	150
2	133467	24.3	160
2	134339	24.5	170
2	138825	24.883	180
2	139017	24.9	190
2	140982	25.1	200
2	142483	25.3	210
2	144726	25.5	210
2	144741	25.5	220
2	146700	25.7	20
2	148509	25.9	30
2	150338	26.1	40
2	152117	26.3	50
2	153896	26.5	60
2	155174	26.7	70
2	156176	26.9	80
2	158318	27.1	90
2	160867	27.3	100
2	162658	27.5	110
2	164125	27.7	120
2	166092	27.9	130
2	167799	28.1	140
2	170070	28.3	150
2	171965	28.5	160
2	173760	28.7	170
2	175271	28.9	180
2	178577	29.283	190
2	178805	29.3	200
2	180958	29.5	200
2	180973	29.5	210
2	182336	29.7	20
2	183491	29.9	30
2	186185	30.1	40
2	188290	30.3	50
2	189289	30.5	60
2	190120	30.7	70
2	192463	30.9	80
2	195248	31.1	90
2	197311	31.3	100
2	199104	31.5	110
2	202303	31.889	120
2	202495	31.9	130
2	205551	32.287	140
2	209889	32.803	150
2	209889	32.803	160
2	212780	33.082	170
2	212780	33.082	180
2	216013	33.5	180
2	217358	33.609	190
2	217358	33.609	200
2	217358	33.609	210
2	218087	33.7	40
2	220295	33.9	50
2	222540	34.1	60
2	224532	34.3	70
2	227145	34.685	80
2	227379	34.7	90
2	229556	34.9	100
2	231224	35.1	110
2	234989	35.483	120
2	235219	35.5	130
2	237167	35.7	140
2	238972	35.9	150
2	240803	36.1	160
2	242429	36.3	170
2	243784	36.5	180
2	245470	36.7	190
2	247780	36.9	200
2	249820	37.1	210
2	251334	37.3	220
2	252796	37.5	220
2	252811	37.5	230
2	255077	37.7	40
2	257071	37.9	50
2	258902	38.1	60
2	260534	38.3	70
2	262482	38.5	80
2	264030	38.7	90
2	265500	38.9	100
2	267519	39.1	110
2	268798	39.3	120
2	271212	39.5	130
2	273089	39.7	140
2	274286	39.9	150
2	275966	40.1	160
2	278498	40.3	170
2	280335	40.5	180
2	282291	40.7	190
2	283959	40.9	200
2	285043	41.1	210
2	286999	41.3	220
2	289484	41.5	220
2	289499	41.5	230
2	291555	41.7	20
2	293350	41.9	30
2	295177	42.1	40
2	296655	42.3	50
2	298643	42.5	60
2	300550	42.7	70
2	302016	42.9	80
2	303849	43.1	90
2	304947	43.3	100
2	307606	43.5	110
2	309617	43.7	120
2	311400	43.9	130
2	313229	44.1	140
2	315004	44.3	150
2	316803	44.5	160
2	318580	44.7	170
2	320368	44.9	180
2	322196	45.1	190
2	323987	45.3	200
2	325760	45.5	200
2	325775	45.5	210
2	327620	45.7	20
2	330837	46.082	30
2	331065	46.1	40
2	333017	46.3	50
2	334544	46.5	60
2	335782	46.7	70
2	337185	46.9	80
2	339249	47.1	90
2	341554	47.3	100
2	343269	47.5	110
2	345349	47.7	120
2	346943	47.9	130
2	347836	48.1	140
2	349191	48.3	150
2	350558	48.5	160
2	353442	48.7	170
2	355551	48.9	180
2	358207	49.1	190
2	360198	49.3	200
2	361985	49.5	200
2	362000	49.5	210
2	363536	49.7	20
2	365560	49.9	30
2	367332	50.1	40
2	369035	50.3	50
2	370513	50.5	60
2	372762	50.7	70
2	374679	50.9	80
2	376226	51.1	90
2	377462	51.3	100
2	378867	51.5	110
2	380881	51.7	120
2	383426	51.9	130
2	385310	52.1	140
2	386774	52.3	150
2	389035	52.5	160
2	390947	52.7	170
2	392733	52.9	180
2	394554	53.1	190
2	396882	53.482	200
2	397044	53.5	200
2	397059	53.5	210
2	399454	53.7	40
2	401279	53.9	50
2	403582	54.1	60
2	405481	54.3	70
2	407276	54.5	80
2	409879	54.884	90
2	410069	54.9	100
2	412159	55.1	110
2	414134	55.3	120
2	415720	55.5	130
2	417909	55.7	140
2	419907	55.9	150
2	421748	56.1	160
2	423537	56.3	170
2	425312	56.5	180
2	428271	56.891	190
2	431460	57.384	200
2	431460	57.384	210
2	431460	57.384	220
2	432532	57.5	220
2	432547	57.5	230
2	435488	57.7	50
2	437131	57.9	60
2	438862	58.1	70
2	440465	58.3	80
2	442828	58.5	90
2	444821	58.7	100
2	447996	59.082	110
2	448190	59.1	120
2	450318	59.3	130
2	452019	59.5	140
2	454274	59.7	150
2	456026	59.9	160
2	458018	60.1	170
2	461193	60.483	180
2	461423	60.5	190
2	463365	60.7	200
2	464933	60.9	210
2	468160	61.282	220
2	468456	61.3	230
2	470615	61.5	230
2	470630	61.5	240
2	472264	61.7	20
2	473740	61.9	30
2	476049	62.1	40
2	477705	62.3	50
2	479179	62.5	60
2	480939	62.7	70
2	484418	63.082	80
2	484780	63.1	90
2	486758	63.3	100
2	488260	63.5	110
2	490515	63.7	120
2	492272	63.9	130
2	494273	64.1	140
2	496058	64.3	150
2	497839	64.5	160
2	499467	64.7	170
2	502847	65.083	180
2	503075	65.1	190
2	505025	65.3	200
2	506818	65.5	200
2	506833	65.5	210
2	509396	65.9	20
2	509396	65.9	30
2	511865	66.1	40
2	514025	66.3	50
2	515739	66.5	60
2	517056	66.7	70
2	519464	66.9	80
2	521152	67.1	90
2	522479	67.3	100
2	524521	67.5	110
2	526726	67.7	120
2	528635	67.9	130
2	530460	68.1	140
2	532241	68.3	150
2	534038	68.5	160
2	535500	68.7	170
2	537500	68.9	180
2	539445	69.1	190
2	540921	69.3	200
2	542663	69.5	200
2	542678	69.5	210
2	544759	69.7	30
2	546271	69.9	40
2	547954	70.1	50
2	549761	70.3	60
2	551573	70.5	70
2	553762	70.7	80
2	555217	70.9	90
2	556417	71.1	100
2	558795	71.3	110
2	560904	71.5	120
2	563022	71.7	130
2	564811	71.9	140
2	566640	72.1	150
2	568423	72.3	160
2	570205	72.5	170
2	571693	72.7	180
2	573133	72.9	190
2	574621	73.1	200
2	576059	73.3	210
2	577489	73.5	210
2	577504	73.5	220
2	578994	73.7	20
2	580434	73.9	30
2	581910	74.1	40
2	583360	74.3	50
2	584798	74.5	60
2	586234	74.7	70
2	587682	74.9	80
2	589160	75.1	90
2	590604	75.3	100
2	592040	75.5	110
2	593478	75.7	120
2	594922	75.9	130
2	596412	76.1	140
2	597850	76.3	150
2	599290	76.5	160
2	600734	76.7	170
2	602015	76.9	180
2	603664	77.1	190
2	605110	77.3	200
2	606534	77.5	200
2	606548	77.5	210
2	608038	77.7	20
2	609476	77.9	30
2	610962	78.1	40
2	613372	78.487	50
2	613512	78.5	60
2	615276	78.7	70
2	616736	78.9	80
2	618222	79.1	90
2	619668	79.3	100
2	621106	79.5	110
2	622544	79.7	120
2	623990	79.9	130
2	625474	80.1	140
2	626910	80.3	150
2	628201	80.5	160
2	629774	80.7	170
2	631004	80.9	180
2	632665	81.1	190
2	634203	81.3	200
2	635627	81.5	200
2	635641	81.5	210
2	636976	81.7	20
2	638574	81.9	30
2	639506	82.1	40
2	641237	82.3	50
2	642975	82.5	60
2	644421	82.7	70
2	645861	82.9	80
2	647337	83.1	90
2	648787	83.3	100
2	650225	83.5	110
2	651346	83.7	120
2	654246	84.083	130
2	654438	84.1	140
2	656025	84.3	150
2	658472	84.685	160
2	658669	84.7	170
2	661425	85.087	180
2	661569	85.1	190
2	663331	85.3	200
2	664543	85.5	200
2	665814	85.682	20
2	666042	85.7	30
2	667518	85.9	40
2	669191	86.1	50
2	670731	86.3	60
2	672171	86.5	70
2	673615	86.7	80
2	675051	86.9	90
2	676535	87.1	100
2	677965	87.3	110
2	679264	87.5	120
2	680869	87.7	130
2	682160	87.9	140
2	683809	88.1	150
2	685241	88.3	160
2	688400	88.793	170
2	690132	89.023	180
2	690132	89.023	190
2	690598	89.1	200
2	692316	89.3	210
2	693913	89.5	210
2	693927	89.5	220
2	695525	89.7	20
2	696959	89.9	30
2	698443	90.1	40
2	699881	90.3	50
2	701325	90.5	60
2	702769	90.7	70
2	704203	90.9	80
2	705683	91.1	90
2	707123	91.3	100
2	708559	91.5	110
2	710013	91.7	120
2	711134	91.9	130
2	712835	92.1	140
2	715470	92.481	150
2	715658	92.5	160
2	717259	92.7	170
2	718725	92.9	180
2	720209	93.1	190
2	721411	93.3	200
2	722858	93.5	200
2	722872	93.5	210
2	724624	93.7	20
2	726064	93.9	30
2	727237	94.1	40
2	728733	94.3	50
2	730452	94.5	60
2	731658	94.7	70
2	732868	94.9	80
2	734715	95.1	90
2	736012	95.3	100
2	737687	95.5	110
2	738755	95.7	120
2	740188	95.9	130
2	741914	96.1	140
2	743453	96.3	150
2	744756	96.5	160
2	746300	96.7	170
2	748009	96.9	180
2	749585	97.1	190
2	751025	97.3	200
2	751944	97.5	200
2	751958	97.5	210
2	753553	97.7	30
2	755282	97.9	40
2	756948	98.1	50
2	759624	98.5	60
2	759624	98.5	70
2	761262	98.7	80
2	762720	98.9	90
2	765283	99.285	100
2	765473	99.3	110
2	767082	99.5	120
2	768544	99.7	130
2	769982	99.9	140
2	771468	100.1	150
2	772906	100.3	160
2	775126	100.684	170
2	775300	100.7	180
2	777144	100.9	190
2	778738	101.1	200
2	780180	101.3	210
2	781610	101.5	210
2	781624	101.5	220
2	783112	101.7	20
2	784546	101.9	30
2	785883	102.1	40
2	787480	102.3	50
2	788924	102.5	60
2	790362	102.7	70
2	791796	102.9	80
2	793286	103.1	90
2	794413	103.3	100
2	795810	103.5	110
2	797492	103.7	120
2	799092	103.9	130
2	800580	104.1	140
2	802024	104.3	150
2	803464	104.5	160
2	804894	104.7	170
2	806336	104.9	180
2	807545	105.1	190
2	808928	105.3	200
2	810645	105.5	200
2	810659	105.5	210
2	812243	105.7	20
2	813530	105.9	30
2	815179	106.1	40
2	816617	106.3	50
2	818063	106.5	60
2	819499	106.7	70
2	820701	106.9	80
2	822364	107.1	90
2	825005	107.49	100
2	825161	107.5	110
2	828718	108	120
2	828718	108	130
2	829306	108.1	140
2	831178	108.3	150
2	832626	108.5	160
2	833749	108.7	170
2	835400	108.9	180
2	837000	109.1	190
2	838210	109.3	200
2	839815	109.5	200
2	839829	109.5	210
2	841411	109.7	20
2	842613	109.9	30
2	844112	110.1	40
2	845826	110.3	50
2	847260	110.5	60
2	848551	110.7	70
2	849994	110.9	80
2	851652	111.1	90
2	853092	111.3	100
2	854296	111.5	110
2	855903	111.7	120
2	857211	111.9	130
2	858862	112.1	140
2	860257	112.3	150
2	861856	112.5	160
2	863294	112.7	170
2	864502	112.9	180
2	866163	113.1	190
2	867701	113.3	200
2	869117	113.5	200
2	869131	113.5	210
2	870310	113.7	20
2	871981	113.9	30
2	873571	114.1	40
2	875011	114.3	50
2	876449	114.5	60
2	877883	114.7	70
2	879321	114.9	80
2	880577	115.1	90
2	881868	115.3	100
2	883642	115.5	110
2	884675	115.7	120
2	886440	115.9	130
2	888142	116.1	140
2	889592	116.3	150
2	890790	116.5	160
2	892399	116.7	170
2	894654	117.094	180
2	894786	117.1	190
2	896780	117.3	200
2	898329	117.5	200
2	898343	117.5	210
2	899825	117.7	20
2	901269	117.9	30
2	902759	118.1	40
2	904191	118.3	50
2	905635	118.5	60
2	908146	118.886	70
2	908336	118.9	80
2	909434	119.1	90
2	910623	119.3	100
2	912768	119.5	110
2	914377	119.7	120
2	915815	119.9	130
2	917150	120.1	140
2	918748	120.3	150
2	920187	120.5	160
2	921635	120.7	170
2	924186	121.083	180
2	924376	121.1	190
2	925731	121.3	200
2	927280	121.5	200
2	928615	121.687	10
2	928789	121.7	20
2	930083	121.9	30
2	931802	122.1	40
2	933358	122.3	50
2	934562	122.5	60
2	936171	122.7	70
2	937713	122.9	80
2	939197	123.1	90
2	942291	123.593	100
2	942291	123.593	110
2	942802	123.7	120
2	944891	123.9	130
2	946508	124.1	140
2	947946	124.3	150
2	949386	124.5	160
2	950822	124.7	170
2	952258	124.9	180
2	953435	125.1	190
2	955084	125.3	200
2	956394	125.5	200
2	956408	125.5	210
2	957747	125.7	30
2	959535	125.9	40
2	961111	126.1	50
2	962559	126.3	60
2	963987	126.5	70
2	965193	126.7	80
2	966804	126.9	90
2	968396	127.1	100
2	969550	127.3	110
2	971168	127.5	120
2	972728	127.7	130
2	974172	127.9	140
2	975337	128.1	150
2	978852	128.543	160
2	980126	128.724	170
2	980126	128.724	180
2	981266	128.9	190
2	983004	129.1	200
1	5423	10.1	30
1	6378	10.3	40
1	7459	10.5	50
1	9887	10.7	60
1	12622	10.9	70
1	14739	11.1	80
1	16524	11.3	90
1	20497	11.732	100
1	20497	11.732	110
1	21797	11.9	120
1	23742	12.1	130
1	25358	12.3	140
1	27308	12.5	150
1	29109	12.7	160
1	30747	12.9	170
1	34965	13.332	180
1	34965	13.332	190
1	36181	13.5	190
1	36196	13.5	200
1	38183	13.7	20
1	39966	13.9	30
1	41791	14.1	40
1	43046	14.3	50
1	44041	14.5	60
1	46321	14.7	70
1	48432	14.9	80
1	50675	15.1	90
1	55882	15.807	100
1	55882	15.807	110
1	55882	15.807	120
1	56969	15.9	130
1	59610	16.1	140
1	61681	16.3	150
1	63470	16.5	160
1	65246	16.7	170
1	66520	16.9	180
1	67716	17.1	190
1	70085	17.3	200
1	71877	17.5	200
1	71892	17.5	210
1	73680	17.7	40
1	75244	17.9	50
1	77273	18.1	60
1	78684	18.3	70
1	80629	18.5	80
1	83166	18.7	90
1	85231	18.9	100
1	87068	19.1	110
1	91442	19.63	120
1	91442	19.63	130
1	95461	20.212	140
1	95461	20.212	150
1	98308	20.448	160
1	98308	20.448	170
1	99061	20.5	180
1	101485	20.7	190
1	103278	20.9	200
1	105103	21.1	210
1	108334	21.5	210
1	109012	21.534	220
1	109012	21.534	230
1	110254	21.7	30
1	112324	21.9	40
1	114177	22.1	50
1	118019	22.531	60
1	118019	22.531	70
1	121537	22.933	80
1	121537	22.933	90
1	122756	23.1	100
1	124983	23.3	110
1	126788	23.5	120
1	128569	23.7	130
1	130358	23.9	140
1	132193	24.1	150
1	133466	24.3	160
1	134338	24.5	170
1	136683	24.7	180
1	139016	24.9	190
1	140981	25.1	200
1	142482	25.3	210
1	144725	25.5	210
1	144740	25.5	220
1	146699	25.7	20
1	148508	25.9	30
1	150337	26.1	40
1	152116	26.3	50
1	153895	26.5	60
1	155173	26.7	70
1	156175	26.9	80
1	158317	27.1	90
1	160866	27.3	100
1	162657	27.5	110
1	164124	27.7	120
1	166091	27.9	130
1	167798	28.1	140
1	170069	28.3	150
1	171964	28.5	160
1	173759	28.7	170
1	175270	28.9	180
1	176630	29.1	190
1	178804	29.3	200
1	180957	29.5	200
1	180972	29.5	210
1	182335	29.7	20
1	183490	29.9	30
1	186184	30.1	40
1	188289	30.3	50
1	189288	30.5	60
1	190119	30.7	70
1	192462	30.9	80
1	195247	31.1	90
1	197310	31.3	100
1	199103	31.5	110
1	200878	31.7	120
1	204808	32.13	130
1	206472	32.365	140
1	206472	32.365	150
1	207416	32.5	160
1	211206	32.934	170
1	211206	32.934	180
1	213111	33.1	190
1	214830	33.3	200
1	216012	33.5	200
1	216027	33.5	210
1	218086	33.7	40
1	220294	33.9	50
1	222539	34.1	60
1	224531	34.3	70
1	226073	34.5	80
1	227378	34.7	90
1	229555	34.9	100
1	231223	35.1	110
1	233384	35.3	120
1	235218	35.5	130
1	237166	35.7	140
1	238971	35.9	150
1	240802	36.1	160
1	244381	36.532	170
1	244381	36.532	180
1	245469	36.7	190
1	247779	36.9	200
1	249819	37.1	210
1	251333	37.3	220
1	252795	37.5	220
1	252810	37.5	230
1	255076	37.7	40
1	257070	37.9	50
1	258901	38.1	60
1	260533	38.3	70
1	262481	38.5	80
1	264029	38.7	90
1	265499	38.9	100
1	269766	39.334	110
1	269766	39.334	120
1	271211	39.5	130
1	273088	39.7	140
1	277052	40.137	150
1	277052	40.137	160
1	278497	40.3	170
1	280334	40.5	180
1	282290	40.7	190
1	283958	40.9	200
1	285042	41.1	210
1	286998	41.3	220
1	289483	41.5	220
1	289498	41.5	230
1	291554	41.7	20
1	293349	41.9	30
1	297452	42.338	40
1	297452	42.338	50
1	298642	42.5	60
1	302632	42.929	70
1	302632	42.929	80
1	305855	43.33	90
1	305855	43.33	100
1	307605	43.5	110
1	309616	43.7	120
1	311399	43.9	130
1	313228	44.1	140
1	315003	44.3	150
1	316802	44.5	160
1	318579	44.7	170
1	320367	44.9	180
1	322195	45.1	190
1	323986	45.3	200
1	325759	45.5	200
1	325774	45.5	210
1	327619	45.7	20
1	329410	45.9	30
1	331064	46.1	40
1	333016	46.3	50
1	334543	46.5	60
1	335781	46.7	70
1	337184	46.9	80
1	339248	47.1	90
1	341553	47.3	100
1	343268	47.5	110
1	345348	47.7	120
1	351323	48.555	130
1	351323	48.555	140
1	351323	48.555	150
1	351323	48.555	160
1	353441	48.7	170
1	355550	48.9	180
1	358206	49.1	190
1	360197	49.3	200
1	361984	49.5	200
1	364289	49.73	10
1	364289	49.73	20
1	365559	49.9	30
1	367331	50.1	40
1	369034	50.3	50
1	370512	50.5	60
1	372761	50.7	70
1	374678	50.9	80
1	376225	51.1	90
1	377461	51.3	100
1	378866	51.5	110
1	380880	51.7	120
1	383425	51.9	130
1	385309	52.1	140
1	386773	52.3	150
1	389034	52.5	160
1	390946	52.7	170
1	392732	52.9	180
1	394553	53.1	190
1	397043	53.5	190
1	397924	53.533	200
1	397924	53.533	210
1	399453	53.7	40
1	401278	53.9	50
1	403581	54.1	60
1	405480	54.3	70
1	407275	54.5	80
1	408776	54.7	90
1	412983	55.131	100
1	412983	55.131	110
1	414133	55.3	120
1	415719	55.5	130
1	417908	55.7	140
1	419906	55.9	150
1	421747	56.1	160
1	423536	56.3	170
1	425311	56.5	180
1	427102	56.7	190
1	428418	56.9	200
1	430936	57.336	210
1	430936	57.336	220
1	432531	57.5	220
1	432546	57.5	230
1	435487	57.7	50
1	437130	57.9	60
1	438861	58.1	70
1	440464	58.3	80
1	445545	58.743	90
1	445545	58.743	100
1	446717	58.9	110
1	448189	59.1	120
1	450317	59.3	130
1	452018	59.5	140
1	454273	59.7	150
1	456025	59.9	160
1	458017	60.1	170
1	459806	60.3	180
1	461422	60.5	190
1	463364	60.7	200
1	466923	61.131	210
1	466923	61.131	220
1	468455	61.3	230
1	470614	61.5	230
1	470629	61.5	240
1	472263	61.7	20
1	473739	61.9	30
1	476048	62.1	40
1	477704	62.3	50
1	479178	62.5	60
1	480938	62.7	70
1	482315	62.9	80
1	484779	63.1	90
1	486757	63.3	100
1	488259	63.5	110
1	490514	63.7	120
1	492271	63.9	130
1	494272	64.1	140
1	496057	64.3	150
1	497838	64.5	160
1	499466	64.7	170
1	501416	64.9	180
1	503074	65.1	190
1	505024	65.3	200
1	506817	65.5	200
1	506832	65.5	210
1	510354	65.93	20
1	512977	66.16	30
1	512977	66.16	40
1	514024	66.3	50
1	515738	66.5	60
1	517055	66.7	70
1	519463	66.9	80
1	521151	67.1	90
1	525528	67.54	100
1	525528	67.54	110
1	526725	67.7	120
1	528634	67.9	130
1	530459	68.1	140
1	532240	68.3	150
1	536252	68.731	160
1	536252	68.731	170
1	537499	68.9	180
1	541664	69.33	190
1	542662	69.5	190
1	543686	69.56	200
1	543686	69.56	210
1	544758	69.7	30
1	546270	69.9	40
1	547953	70.1	50
1	549760	70.3	60
1	551572	70.5	70
1	557813	71.208	80
1	557813	71.208	90
1	560343	71.44	100
1	560343	71.44	110
1	560903	71.5	120
1	563021	71.7	130
1	564810	71.9	140
1	566639	72.1	150
1	568422	72.3	160
1	570204	72.5	170
1	571692	72.7	180
1	573132	72.9	190
1	574620	73.1	200
1	576058	73.3	210
1	577488	73.5	210
1	577503	73.5	220
1	578993	73.7	20
1	580433	73.9	30
1	581909	74.1	40
1	583359	74.3	50
1	584797	74.5	60
1	586233	74.7	70
1	587681	74.9	80
1	589159	75.1	90
1	590603	75.3	100
1	592039	75.5	110
1	593477	75.7	120
1	594921	75.9	130
1	596411	76.1	140
1	597849	76.3	150
1	599289	76.5	160
1	600733	76.7	170
1	602014	76.9	180
1	603663	77.1	190
1	605109	77.3	200
1	606533	77.5	200
1	606547	77.5	210
1	608037	77.7	20
1	609475	77.9	30
1	610961	78.1	40
1	612395	78.3	50
1	613511	78.5	60
1	615275	78.7	70
1	616735	78.9	80
1	618221	79.1	90
1	619667	79.3	100
1	621105	79.5	110
1	622543	79.7	120
1	623989	79.9	130
1	625473	80.1	140
1	626909	80.3	150
1	628200	80.5	160
1	629773	80.7	170
1	631003	80.9	180
1	632664	81.1	190
1	634202	81.3	200
1	635626	81.5	200
1	635640	81.5	210
1	636975	81.7	20
1	640472	82.215	30
1	640472	82.215	40
1	641236	82.3	50
1	642974	82.5	60
1	644420	82.7	70
1	645860	82.9	80
1	647336	83.1	90
1	648786	83.3	100
1	651941	83.734	110
1	651941	83.734	120
1	652992	83.9	130
1	654437	84.1	140
1	657515	84.532	150
1	657515	84.532	160
1	658668	84.7	170
1	660376	84.9	180
1	661568	85.1	190
1	663330	85.3	200
1	664542	85.5	200
1	664556	85.5	210
1	666041	85.7	30
1	667517	85.9	40
1	669190	86.1	50
1	670730	86.3	60
1	672170	86.5	70
1	673614	86.7	80
1	675050	86.9	90
1	676534	87.1	100
1	677964	87.3	110
1	679263	87.5	120
1	680868	87.7	130
1	682159	87.9	140
1	683808	88.1	150
1	685240	88.3	160
1	686678	88.5	170
1	687587	88.7	180
1	688796	88.9	190
1	690597	89.1	200
1	692315	89.3	210
1	693912	89.5	210
1	693926	89.5	220
1	695524	89.7	20
1	696958	89.9	30
1	698442	90.1	40
1	699880	90.3	50
1	701324	90.5	60
1	702768	90.7	70
1	704202	90.9	80
1	705682	91.1	90
1	707122	91.3	100
1	708558	91.5	110
1	711723	91.932	120
1	711723	91.932	130
1	712834	92.1	140
1	714388	92.3	150
1	715657	92.5	160
1	717258	92.7	170
1	718724	92.9	180
1	720208	93.1	190
1	721410	93.3	200
1	722857	93.5	200
1	722871	93.5	210
1	724623	93.7	20
1	727721	94.143	30
1	727721	94.143	40
1	728732	94.3	50
1	730451	94.5	60
1	731657	94.7	70
1	732867	94.9	80
1	736599	95.33	90
1	736599	95.33	100
1	739219	95.729	110
1	740844	95.965	120
1	740844	95.965	130
1	741913	96.1	140
1	745191	96.53	150
1	745191	96.53	160
1	746299	96.7	170
1	748008	96.9	180
1	749584	97.1	190
1	751024	97.3	200
1	751943	97.5	200
1	751957	97.5	210
1	753552	97.7	30
1	755281	97.9	40
1	756947	98.1	50
1	758387	98.3	60
1	759530	98.5	70
1	761261	98.7	80
1	762719	98.9	90
1	764213	99.1	100
1	765472	99.3	110
1	767081	99.5	120
1	768543	99.7	130
1	769981	99.9	140
1	771467	100.1	150
1	772905	100.3	160
1	775883	100.729	170
1	775883	100.729	180
1	777143	100.9	190
1	778737	101.1	200
1	780179	101.3	210
1	781609	101.5	210
1	781623	101.5	220
1	783111	101.7	20
1	784545	101.9	30
1	785882	102.1	40
1	787479	102.3	50
1	788923	102.5	60
1	790361	102.7	70
1	791795	102.9	80
1	795005	103.332	90
1	796640	103.566	100
1	796640	103.566	110
1	797491	103.7	120
1	799091	103.9	130
1	800579	104.1	140
1	802023	104.3	150
1	803463	104.5	160
1	804893	104.7	170
1	806335	104.9	180
1	807544	105.1	190
1	808927	105.3	200
1	810644	105.5	200
1	810658	105.5	210
1	812242	105.7	20
1	813529	105.9	30
1	815178	106.1	40
1	816616	106.3	50
1	818062	106.5	60
1	819498	106.7	70
1	820700	106.9	80
1	822363	107.1	90
1	823893	107.3	100
1	825160	107.5	110
1	826763	107.7	120
1	827684	107.9	130
1	829305	108.1	140
1	831177	108.3	150
1	834365	108.74	160
1	834365	108.74	170
1	835399	108.9	180
1	836999	109.1	190
1	838209	109.3	200
1	839814	109.5	200
1	839828	109.5	210
1	841410	109.7	20
1	842612	109.9	30
1	844111	110.1	40
1	845825	110.3	50
1	847259	110.5	60
1	848550	110.7	70
1	849993	110.9	80
1	851651	111.1	90
1	853091	111.3	100
1	854295	111.5	110
1	855902	111.7	120
1	857210	111.9	130
1	858861	112.1	140
1	860256	112.3	150
1	861855	112.5	160
1	863293	112.7	170
1	864501	112.9	180
1	866162	113.1	190
1	867700	113.3	200
1	869116	113.5	200
1	870898	113.731	10
1	870898	113.731	20
1	871980	113.9	30
1	873570	114.1	40
1	875010	114.3	50
1	876448	114.5	60
1	877882	114.7	70
1	879320	114.9	80
1	882436	115.331	90
1	882436	115.331	100
1	883641	115.5	110
1	884674	115.7	120
1	886439	115.9	130
1	888141	116.1	140
1	889591	116.3	150
1	890789	116.5	160
1	892398	116.7	170
1	895403	117.131	180
1	895403	117.131	190
1	896779	117.3	200
1	898328	117.5	200
1	898342	117.5	210
1	899824	117.7	20
1	901268	117.9	30
1	902758	118.1	40
1	904190	118.3	50
1	905634	118.5	60
1	907072	118.7	70
1	910929	119.301	80
1	910929	119.301	90
1	910929	119.301	100
1	912767	119.5	110
1	914376	119.7	120
1	915814	119.9	130
1	917149	120.1	140
1	918747	120.3	150
1	920186	120.5	160
1	921634	120.7	170
1	923070	120.9	180
1	924375	121.1	190
1	925730	121.3	200
1	927279	121.5	200
1	927293	121.5	210
1	930692	121.933	20
1	930692	121.933	30
1	931801	122.1	40
1	933357	122.3	50
1	934561	122.5	60
1	936170	122.7	70
1	937712	122.9	80
1	939196	123.1	90
1	940638	123.3	100
1	943650	123.741	110
1	943650	123.741	120
1	944890	123.9	130
1	946507	124.1	140
1	947945	124.3	150
1	949385	124.5	160
1	950821	124.7	170
1	954024	125.132	180
1	954024	125.132	190
1	955083	125.3	200
1	956393	125.5	200
1	958318	125.73	20
1	958318	125.73	30
1	959534	125.9	40
1	961110	126.1	50
1	962558	126.3	60
1	963986	126.5	70
1	965192	126.7	80
1	966803	126.9	90
1	968395	127.1	100
1	969549	127.3	110
1	971167	127.5	120
1	972727	127.7	130
1	975794	128.13	140
1	975794	128.13	150
1	976777	128.3	160
1	978188	128.5	170
1	979684	128.7	180
1	981265	128.9	190
1	984563	129.331	200
1	984563	129.331	210
1	985462	129.5	210
1	985475	129.5	220
1	986701	129.7	220
1	989056	130.129	230
1	989056	130.129	240
1	989973	130.3	250
1	991005	130.5	260
1	992015	130.7	270
1	993278	130.9	280
1	994523	131.1	290
1	995622	131.3	300
1	996715	131.5	310
1	997808	131.7	320
1	998907	131.9	330
1	1000044	132.1	340
1	1000897	132.3	350
1	1002162	132.5	360
1	1003351	132.7	370
1	1004448	132.9	380
1	1005591	133.1	390
1	1006678	133.3	400
1	1007616	133.5	400
1	1007629	133.5	410
1	1008907	133.7	20
1	1010008	133.9	30
1	1011145	134.1	40
1	1012242	134.3	50
1	1013184	134.5	60
1	1014438	134.7	70
1	1015537	134.9	80
1	1016680	135.1	90
1	1017771	135.3	100
1	1018864	135.5	110
1	1019961	135.7	120
1	1021054	135.9	130
1	1022195	136.1	140
1	1023290	136.3	150
1	1024389	136.5	160
1	1025478	136.7	170
1	1026331	136.9	180
1	1027640	137.1	190
1	1028593	137.3	200
1	1029848	137.5	200
1	1029861	137.5	210
1	1031076	137.7	20
1	1032173	137.9	30
1	1033318	138.1	40
1	1034409	138.3	50
1	1035347	138.5	60
1	1036365	138.7	70
1	1037624	138.9	80
1	1038625	139.1	90
1	1039884	139.3	100
1	1041081	139.5	110
1	1042178	139.7	120
1	1043277	139.9	130
1	1044412	140.1	140
1	1045505	140.3	150
1	1046451	140.5	160
1	1047703	140.7	170
1	1048649	140.9	180
1	1049953	141.1	190
1	1050800	141.3	200
1	1051907	141.5	200
1	1051920	141.5	210
1	1053298	141.7	20
1	1054244	141.9	30
1	1055541	142.1	40
1	1056639	142.3	50
1	1057736	142.5	60
1	1058835	142.7	70
1	1059926	142.9	80
1	1061067	143.1	90
1	1062011	143.3	100
1	1063269	143.5	110
1	1065446	143.933	120
1	1066879	144.163	130
1	1066879	144.163	140
1	1067587	144.3	150
1	1068847	144.5	160
1	1069935	144.7	170
1	1070875	144.9	180
1	1071935	145.1	190
1	1073204	145.3	200
1	1074143	145.5	200
1	1074156	145.5	210
1	1075449	145.7	30
1	1076642	145.9	40
1	1077781	146.1	50
1	1078626	146.3	60
1	1079669	146.5	70
1	1080934	146.7	80
1	1082205	146.9	90
1	1084553	147.333	100
1	1084553	147.333	110
1	1085436	147.5	120
1	1086647	147.7	130
1	1087748	147.9	140
1	1088881	148.1	150
1	1089831	148.3	160
1	1091089	148.5	170
1	1091938	148.7	180
1	1093203	148.9	190
1	1094436	149.1	200
1	1095531	149.3	210
1	1096620	149.5	210
1	1096633	149.5	220
1	1097756	149.7	20
1	1098849	149.9	30
1	1099837	150.1	40
1	1101095	150.3	50
1	1102190	150.5	60
1	1103281	150.7	70
1	1105634	151.136	80
1	1105634	151.136	90
1	1106512	151.3	100
1	1107729	151.5	110
1	1108824	151.7	120
1	1109919	151.9	130
1	1111058	152.1	140
1	1112155	152.3	150
1	1113250	152.5	160
1	1114339	152.7	170
1	1115432	152.9	180
1	1116579	153.1	190
1	1118444	153.5	190
1	1118890	153.534	200
1	1118890	153.534	210
1	1119785	153.7	30
1	1122128	154.131	40
1	1122128	154.131	50
1	1123154	154.3	60
1	1124353	154.5	70
1	1125454	154.7	80
1	1126297	154.9	90
1	1127612	155.1	100
1	1129887	155.533	110
1	1129887	155.533	120
1	1130897	155.7	130
1	1132116	155.9	140
1	1133249	156.1	150
1	1134352	156.3	160
1	1136652	156.732	170
1	1136652	156.732	180
1	1138898	157.166	190
1	1138898	157.166	200
1	1139509	157.3	210
1	1140922	157.5	210
1	1140935	157.5	220
1	1142142	157.7	20
1	1143245	157.9	30
1	1144392	158.1	40
1	1145481	158.3	50
1	1146578	158.5	60
1	1147673	158.7	70
1	1148774	158.9	80
1	1149915	159.1	90
1	1151002	159.3	100
1	1152103	159.5	110
1	1153194	159.7	120
1	1154287	159.9	130
1	1155281	160.1	140
1	1157732	160.529	150
1	1157732	160.529	160
1	1158649	160.7	170
1	1159834	160.9	180
1	1160979	161.1	190
1	1162842	161.5	190
1	1163318	161.541	200
1	1163318	161.541	210
1	1164187	161.7	30
1	1165398	161.9	40
1	1166543	162.1	50
1	1167634	162.3	60
1	1168731	162.5	70
1	1169820	162.7	80
1	1170921	162.9	90
1	1172062	163.1	100
1	1173157	163.3	110
1	1174256	163.5	120
1	1176429	163.934	130
1	1176429	163.934	140
1	1177320	164.1	150
1	1178698	164.3	160
1	1179644	164.5	170
1	1180894	164.7	180
1	1181997	164.9	190
1	1183142	165.1	200
1	1184231	165.3	210
1	1185320	165.5	210
1	1185333	165.5	220
1	1186450	165.7	20
1	1187301	165.9	30
1	1188610	166.1	40
1	1189646	166.3	50
1	1190914	166.5	60
1	1192007	166.7	70
1	1193104	166.9	80
1	1194241	167.1	90
1	1195336	167.3	100
1	1196431	167.5	110
1	1197373	167.7	120
1	1198477	167.9	130
1	1199786	168.1	140
1	1201945	168.618	150
1	1201945	168.618	160
1	1202641	168.7	170
1	1204188	168.9	180
1	1205335	169.1	190
1	1207196	169.5	190
1	1207645	169.53	200
1	1207645	169.53	210
1	1208575	169.7	30
1	1209758	169.9	40
1	1210897	170.1	50
1	1211746	170.3	60
1	1213005	170.5	70
1	1214210	170.7	80
1	1215301	170.9	90
1	1216440	171.1	100
1	1217533	171.3	110
1	1218632	171.5	120
1	1219729	171.7	130
1	1222073	172.131	140
1	1222073	172.131	150
1	1222976	172.3	160
1	1224171	172.5	170
1	1225266	172.7	180
1	1226359	172.9	190
1	1227502	173.1	200
1	1228597	173.3	210
1	1229678	173.5	210
1	1229691	173.5	220
1	1230657	173.7	20
1	1231919	173.9	30
1	1233062	174.1	40
1	1233905	174.3	50
1	1235020	174.5	60
1	1236387	174.7	70
1	1237484	174.9	80
1	1238623	175.1	90
vector 15 FastSMRModel.logicComputer[0].node[5] QdLengthVector:vector ETV
attr source QdLength
attr title "Qd Length, vector"
vector 16 FastSMRModel.logicComputer[0].node[6] QdLengthVector:vector ETV
attr source QdLength
attr title "Qd Length, vector"
vector 17 FastSMRModel.logicComputer[0].node[7] QdLengthVector:vector ETV
attr source QdLength
attr title "Qd Length, vector"
13	7832	10.519	30
13	7832	10.519	40
13	7832	10.519	50
13	9891	10.7	60
13	12626	10.9	70
13	14743	11.1	80
13	16528	11.3	90
13	18037	11.5	100
13	19681	11.7	110
13	21801	11.9	120
13	23746	12.1	130
13	25362	12.3	140
13	27312	12.5	150
13	29113	12.7	160
13	30751	12.9	170
13	32743	13.1	180
13	34205	13.3	190
13	36185	13.5	190
13	36200	13.5	200
13	38187	13.7	210
13	39970	13.9	30
13	44523	14.519	40
13	44523	14.519	50
13	49214	14.943	60
13	49214	14.943	70
13	49214	14.943	80
13	50679	15.1	90
13	54812	15.723	100
13	54812	15.723	110
13	54812	15.723	120
13	56973	15.9	130
13	59614	16.1	140
13	61685	16.3	150
13	63474	16.5	160
13	68089	17.122	170
13	68089	17.122	180
13	68089	17.122	190
13	70089	17.3	200
13	71881	17.5	200
13	71896	17.5	210
13	73684	17.7	220
13	79174	18.32	50
13	79174	18.32	60
13	79174	18.32	70
13	80633	18.5	80
13	83170	18.7	90
13	85235	18.9	100
13	87072	19.1	110
13	88853	19.3	120
13	90320	19.5	130
13	94674	20.128	140
13	94674	20.128	150
13	94674	20.128	160
13	96298	20.3	170
13	99065	20.5	180
13	101489	20.7	190
13	103282	20.9	200
13	105107	21.1	210
13	106884	21.3	220
13	108338	21.5	220
13	108353	21.5	230
13	110258	21.7	240
13	112328	21.9	40
13	114181	22.1	50
13	115809	22.3	60
13	117271	22.5	70
13	119436	22.7	80
13	121042	22.9	90
13	122760	23.1	100
13	124987	23.3	110
13	126792	23.5	120
13	128573	23.7	130
13	130362	23.9	140
13	134656	24.519	150
13	134656	24.519	160
13	134656	24.519	170
13	136687	24.7	180
13	143128	25.321	190
13	143128	25.321	200
13	143128	25.321	210
13	144729	25.5	210
13	144744	25.5	220
13	146703	25.7	220
13	148512	25.9	30
13	150341	26.1	40
13	152120	26.3	50
13	156637	26.923	60
13	156637	26.923	70
13	156637	26.923	80
13	158321	27.1	90
13	160870	27.3	100
13	162661	27.5	110
13	168462	28.121	120
13	168462	28.121	130
13	168462	28.121	140
13	170073	28.3	150
13	171968	28.5	160
13	173763	28.7	170
13	175274	28.9	180
13	176634	29.1	190
13	178808	29.3	200
13	180961	29.5	200
13	183991	29.922	10
13	183991	29.922	20
13	183991	29.922	30
13	186188	30.1	40
13	190443	30.72	50
13	190443	30.72	60
13	190443	30.72	70
13	192466	30.9	80
13	195251	31.1	90
13	197314	31.3	100
13	199107	31.5	110
13	200882	31.7	120
13	202498	31.9	130
13	204179	32.1	140
13	209082	32.738	150
13	209082	32.738	160
13	209082	32.738	170
13	210601	32.9	180
13	216016	33.5	180
13	216572	33.546	190
13	216572	33.546	200
13	216572	33.546	210
13	218090	33.7	220
13	220298	33.9	50
13	222543	34.1	60
13	228043	34.725	70
13	228043	34.725	80
13	232017	35.146	90
13	232017	35.146	100
13	232017	35.146	110
13	233388	35.3	120
13	235222	35.5	130
13	237170	35.7	140
13	238975	35.9	150
13	240806	36.1	160
13	242432	36.3	170
13	243787	36.5	180
13	245473	36.7	190
13	247783	36.9	200
13	249823	37.1	210
13	251337	37.3	220
13	252799	37.5	220
13	252814	37.5	230
13	255080	37.7	220
13	257074	37.9	50
13	258905	38.1	60
13	260537	38.3	70
13	266022	38.92	80
13	266022	38.92	90
13	266022	38.92	100
13	267522	39.1	110
13	268801	39.3	120
13	274648	39.919	130
13	274648	39.919	140
13	274648	39.919	150
13	275969	40.1	160
13	278501	40.3	170
13	280338	40.5	180
13	285410	41.124	190
13	285410	41.124	200
13	285410	41.124	210
13	287002	41.3	220
13	289487	41.5	220
13	289502	41.5	230
13	291558	41.7	240
13	293353	41.9	30
13	295180	42.1	40
13	296658	42.3	50
13	298646	42.5	60
13	300553	42.7	70
13	305437	43.321	80
13	305437	43.321	90
13	305437	43.321	100
13	307609	43.5	110
13	309620	43.7	120
13	311403	43.9	130
13	313232	44.1	140
13	315007	44.3	150
13	316806	44.5	160
13	318583	44.7	170
13	320371	44.9	180
13	322199	45.1	190
13	323990	45.3	200
13	325763	45.5	200
13	325778	45.5	210
13	327623	45.7	220
13	329414	45.9	30
13	331068	46.1	40
13	333020	46.3	50
13	337727	46.923	60
13	337727	46.923	70
13	337727	46.923	80
13	339252	47.1	90
13	341557	47.3	100
13	343272	47.5	110
13	348195	48.119	120
13	350072	48.47	130
13	350072	48.47	140
13	350072	48.47	150
13	350561	48.5	160
13	353445	48.7	170
13	355554	48.9	180
13	358210	49.1	190
13	360201	49.3	200
13	361988	49.5	200
13	362003	49.5	210
13	363539	49.7	220
13	365563	49.9	30
13	371166	50.524	40
13	371166	50.524	50
13	371166	50.524	60
13	372765	50.7	70
13	374682	50.9	80
13	379365	51.519	90
13	379365	51.519	100
13	379365	51.519	110
13	380884	51.7	120
13	387415	52.319	130
13	387415	52.319	140
13	387415	52.319	150
13	389038	52.5	160
13	390950	52.7	170
13	392736	52.9	180
13	394557	53.1	190
13	396072	53.3	200
13	397047	53.5	200
13	401928	53.92	30
13	401928	53.92	40
13	401928	53.92	50
13	403585	54.1	60
13	405484	54.3	70
13	407279	54.5	80
13	408780	54.7	90
13	410072	54.9	100
13	412162	55.1	110
13	414137	55.3	120
13	415723	55.5	130
13	417912	55.7	140
13	419910	55.9	150
13	421751	56.1	160
13	423540	56.3	170
13	425315	56.5	180
13	427106	56.7	190
13	430527	57.32	200
13	430527	57.32	210
13	430527	57.32	220
13	432535	57.5	220
13	432550	57.5	230
13	435491	57.7	240
13	437134	57.9	60
13	438865	58.1	70
13	440468	58.3	80
13	442831	58.5	90
13	444824	58.7	100
13	446721	58.9	110
13	452660	59.52	120
13	452660	59.52	130
13	452660	59.52	140
13	454277	59.7	150
13	456029	59.9	160
13	458021	60.1	170
13	459810	60.3	180
13	461426	60.5	190
13	466533	61.118	200
13	466533	61.118	210
13	466533	61.118	220
13	468459	61.3	230
13	470618	61.5	230
13	474379	61.92	10
13	474379	61.92	20
13	474379	61.92	30
13	479824	62.52	40
13	482943	62.94	50
13	482943	62.94	60
13	482943	62.94	70
13	482943	62.94	80
13	488919	63.521	90
13	488919	63.521	100
13	488919	63.521	110
13	490518	63.7	120
13	492275	63.9	130
13	494276	64.1	140
13	496061	64.3	150
13	497842	64.5	160
13	499470	64.7	170
13	501420	64.9	180
13	503078	65.1	190
13	505028	65.3	200
13	506821	65.5	200
13	509952	65.919	10
13	509952	65.919	20
13	509952	65.919	30
13	511868	66.1	40
13	517687	66.723	50
13	517687	66.723	60
13	517687	66.723	70
13	519467	66.9	80
13	521155	67.1	90
13	522482	67.3	100
13	524524	67.5	110
13	526729	67.7	120
13	528638	67.9	130
13	530463	68.1	140
13	532244	68.3	150
13	534041	68.5	160
13	535503	68.7	170
13	537503	68.9	180
13	539448	69.1	190
13	540924	69.3	200
13	542666	69.5	200
13	542681	69.5	210
13	544762	69.7	220
13	546274	69.9	40
13	547957	70.1	50
13	549764	70.3	60
13	551576	70.5	70
13	556958	71.124	80
13	556958	71.124	90
13	556958	71.124	100
13	558798	71.3	110
13	560907	71.5	120
13	563025	71.7	130
13	564814	71.9	140
13	566643	72.1	150
13	568426	72.3	160
13	570207	72.5	170
13	571695	72.7	180
13	573135	72.9	190
13	574623	73.1	200
13	576061	73.3	210
13	577491	73.5	210
13	577506	73.5	220
13	578996	73.7	20
13	580436	73.9	30
13	581912	74.1	40
13	583362	74.3	50
13	584800	74.5	60
13	586236	74.7	70
13	587684	74.9	80
13	589162	75.1	90
13	590606	75.3	100
13	592042	75.5	110
13	593480	75.7	120
13	594924	75.9	130
13	596414	76.1	140
13	597852	76.3	150
13	599292	76.5	160
13	600736	76.7	170
13	602017	76.9	180
13	603666	77.1	190
13	605112	77.3	200
13	606536	77.5	200
13	606550	77.5	210
13	608040	77.7	20
13	609478	77.9	30
13	610964	78.1	40
13	612398	78.3	50
13	613514	78.5	60
13	615278	78.7	70
13	616738	78.9	80
13	618224	79.1	90
13	619670	79.3	100
13	621108	79.5	110
13	622546	79.7	120
13	623992	79.9	130
13	625476	80.1	140
13	626912	80.3	150
13	628203	80.5	160
13	631521	80.93	170
13	631521	80.93	180
13	632667	81.1	190
13	634205	81.3	200
13	635629	81.5	200
13	635643	81.5	210
13	636978	81.7	20
13	639905	82.131	30
13	639905	82.131	40
13	641239	82.3	50
13	642977	82.5	60
13	644423	82.7	70
13	645863	82.9	80
13	647339	83.1	90
13	648789	83.3	100
13	650227	83.5	110
13	651348	83.7	120
13	652995	83.9	130
13	654440	84.1	140
13	656027	84.3	150
13	657027	84.5	160
13	658671	84.7	170
13	660379	84.9	180
13	661571	85.1	190
13	664545	85.5	190
13	664981	85.537	200
13	664981	85.537	210
13	668049	85.932	30
13	668049	85.932	40
13	669193	86.1	50
13	670733	86.3	60
13	672173	86.5	70
13	673617	86.7	80
13	675053	86.9	90
13	676537	87.1	100
13	677967	87.3	110
13	679266	87.5	120
13	680871	87.7	130
13	682162	87.9	140
13	683811	88.1	150
13	685243	88.3	160
13	687947	88.73	170
13	689500	88.962	180
13	689500	88.962	190
13	692833	89.331	200
13	692833	89.331	210
13	693915	89.5	210
13	693929	89.5	220
13	695527	89.7	20
13	696961	89.9	30
13	698445	90.1	40
13	699883	90.3	50
13	701327	90.5	60
13	702771	90.7	70
13	704205	90.9	80
13	705685	91.1	90
13	707125	91.3	100
13	708561	91.5	110
13	710015	91.7	120
13	711136	91.9	130
13	712837	92.1	140
13	714391	92.3	150
13	715660	92.5	160
13	717261	92.7	170
13	718727	92.9	180
13	721805	93.329	190
13	721805	93.329	200
13	722860	93.5	200
13	722874	93.5	210
13	724626	93.7	20
13	726066	93.9	30
13	727239	94.1	40
13	728735	94.3	50
13	732416	94.874	60
13	732416	94.874	70
13	732870	94.9	80
13	734717	95.1	90
13	736014	95.3	100
13	737689	95.5	110
13	738757	95.7	120
13	740190	95.9	130
13	743845	96.33	140
13	743845	96.33	150
13	746907	96.733	160
13	746907	96.733	170
13	748011	96.9	180
13	749587	97.1	190
13	751946	97.5	190
13	752331	97.531	200
13	754256	97.76	20
13	754256	97.76	30
13	755284	97.9	40
13	756950	98.1	50
13	758390	98.3	60
13	759533	98.5	70
13	761264	98.7	80
13	762722	98.9	90
13	764216	99.1	100
13	765475	99.3	110
13	767084	99.5	120
13	768546	99.7	130
13	769984	99.9	140
13	771470	100.1	150
13	772908	100.3	160
13	774344	100.5	170
13	775302	100.7	180
13	777146	100.9	190
13	778740	101.1	200
13	780182	101.3	210
13	781612	101.5	210
13	781626	101.5	220
13	783114	101.7	20
13	784548	101.9	30
13	785885	102.1	40
13	787482	102.3	50
13	788926	102.5	60
13	790364	102.7	70
13	791798	102.9	80
13	793288	103.1	90
13	794415	103.3	100
13	795812	103.5	110
13	797494	103.7	120
13	799094	103.9	130
13	800582	104.1	140
13	802026	104.3	150
13	803466	104.5	160
13	804896	104.7	170
13	806338	104.9	180
13	809495	105.33	190
13	809495	105.33	200
13	810647	105.5	200
13	810661	105.5	210
13	812245	105.7	20
13	813532	105.9	30
13	815181	106.1	40
13	816619	106.3	50
13	818065	106.5	60
13	821214	106.93	70
13	821214	106.93	80
13	822366	107.1	90
13	823896	107.3	100
13	825163	107.5	110
13	828046	107.935	120
13	828046	107.935	130
13	829308	108.1	140
13	831180	108.3	150
13	832628	108.5	160
13	833751	108.7	170
13	835402	108.9	180
13	838719	109.33	190
13	838719	109.33	200
13	839817	109.5	200
13	839831	109.5	210
13	843017	109.937	20
13	843017	109.937	30
13	844114	110.1	40
13	845828	110.3	50
13	847262	110.5	60
13	848553	110.7	70
13	849996	110.9	80
13	851654	111.1	90
13	854811	111.532	100
13	854811	111.532	110
13	857726	111.932	120
13	857726	111.932	130
13	858864	112.1	140
13	860259	112.3	150
13	861858	112.5	160
13	865017	112.932	170
13	865017	112.932	180
13	866165	113.1	190
13	867703	113.3	200
13	869119	113.5	200
13	869133	113.5	210
13	870312	113.7	20
13	871983	113.9	30
13	873573	114.1	40
13	875013	114.3	50
13	876451	114.5	60
13	877885	114.7	70
13	880973	115.13	80
13	880973	115.13	90
13	881870	115.3	100
13	885028	115.73	110
13	885028	115.73	120
13	886442	115.9	130
13	888144	116.1	140
13	891307	116.53	150
13	891307	116.53	160
13	892401	116.7	170
13	893939	116.9	180
13	894788	117.1	190
13	896782	117.3	200
13	898331	117.5	200
13	898345	117.5	210
13	899827	117.7	20
13	901271	117.9	30
13	902761	118.1	40
13	904193	118.3	50
13	905637	118.5	60
13	907075	118.7	70
13	910049	119.217	80
13	910049	119.217	90
13	910625	119.3	100
13	912770	119.5	110
13	914379	119.7	120
13	915817	119.9	130
13	917152	120.1	140
13	918750	120.3	150
13	920189	120.5	160
13	921637	120.7	170
13	923073	120.9	180
13	926578	121.401	190
13	926578	121.401	200
13	927282	121.5	200
13	927296	121.5	210
13	928791	121.7	20
13	930085	121.9	30
13	931804	122.1	40
13	935081	122.533	50
13	935081	122.533	60
13	936173	122.7	70
13	937715	122.9	80
13	939199	123.1	90
13	941776	123.532	100
13	941776	123.532	110
13	942804	123.7	120
13	944893	123.9	130
13	946510	124.1	140
13	947948	124.3	150
13	949388	124.5	160
13	950824	124.7	170
13	952260	124.9	180
13	953437	125.1	190
13	956396	125.5	190
13	956824	125.531	200
13	956824	125.531	210
13	957749	125.7	30
13	959537	125.9	40
13	961113	126.1	50
13	962561	126.3	60
13	965702	126.73	70
13	965702	126.73	80
13	966806	126.9	90
13	968398	127.1	100
13	969552	127.3	110
13	971170	127.5	120
13	972730	127.7	130
13	974174	127.9	140
13	977244	128.331	150
13	977244	128.331	160
13	978191	128.5	170
13	979687	128.7	180
13	981268	128.9	190
13	983006	129.1	200
13	984136	129.3	210
13	985464	129.5	210
13	985477	129.5	220
13	986703	129.7	220
13	987649	129.9	230
13	988641	130.1	240
13	989975	130.3	250
13	992365	130.731	260
13	992365	130.731	270
13	993280	130.9	280
13	994525	131.1	290
13	995624	131.3	300
13	996717	131.5	310
13	997810	131.7	320
13	998909	131.9	330
13	1001245	132.331	340
13	1001245	132.331	350
13	1002164	132.5	360
13	1003353	132.7	370
13	1004450	132.9	380
13	1005593	133.1	390
13	1006680	133.3	400
13	1007618	133.5	400
13	1007631	133.5	410
13	1008909	133.7	20
13	1010010	133.9	30
13	1011147	134.1	40
13	1012244	134.3	50
13	1013186	134.5	60
13	1014440	134.7	70
13	1015539	134.9	80
13	1016682	135.1	90
13	1017773	135.3	100
13	1018866	135.5	110
13	1019963	135.7	120
13	1021056	135.9	130
13	1022197	136.1	140
13	1023292	136.3	150
13	1024391	136.5	160
13	1026683	136.929	170
13	1026683	136.929	180
13	1028941	137.332	190
13	1028941	137.332	200
13	1029850	137.5	200
13	1029863	137.5	210
13	1031078	137.7	20
13	1032175	137.9	30
13	1033320	138.1	40
13	1034411	138.3	50
13	1036713	138.731	60
13	1036713	138.731	70
13	1038975	139.132	80
13	1038975	139.132	90
13	1039886	139.3	100
13	1041083	139.5	110
13	1042180	139.7	120
13	1043279	139.9	130
13	1044414	140.1	140
13	1045507	140.3	150
13	1046453	140.5	160
13	1047705	140.7	170
13	1048651	140.9	180
13	1051031	141.333	190
13	1051031	141.333	200
13	1051909	141.5	200
13	1051922	141.5	210
13	1053300	141.7	20
13	1054246	141.9	30
13	1055543	142.1	40
13	1056641	142.3	50
13	1057738	142.5	60
13	1058837	142.7	70
13	1059928	142.9	80
13	1061069	143.1	90
13	1062013	143.3	100
13	1063271	143.5	110
13	1064358	143.7	120
13	1064991	143.9	130
13	1066250	144.1	140
13	1067589	144.3	150
13	1068849	144.5	160
13	1069937	144.7	170
13	1072289	145.133	180
13	1072289	145.133	190
13	1074145	145.5	190
13	1074516	145.531	200
13	1074516	145.531	210
13	1075451	145.7	30
13	1076644	145.9	40
13	1078980	146.33	50
13	1080235	146.56	60
13	1080235	146.56	70
13	1080936	146.7	80
13	1082207	146.9	90
13	1083354	147.1	100
13	1084130	147.3	110
13	1085438	147.5	120
13	1086649	147.7	130
13	1087750	147.9	140
13	1088883	148.1	150
13	1089833	148.3	160
13	1092288	148.733	170
13	1092288	148.733	180
13	1093205	148.9	190
13	1094438	149.1	200
13	1095533	149.3	210
13	1096622	149.5	210
13	1096635	149.5	220
13	1097758	149.7	20
13	1098851	149.9	30
13	1099839	150.1	40
13	1101097	150.3	50
13	1102192	150.5	60
13	1103283	150.7	70
13	1104380	150.9	80
13	1105208	151.1	90
13	1106514	151.3	100
13	1107731	151.5	110
13	1108826	151.7	120
13	1109921	151.9	130
13	1111060	152.1	140
13	1112157	152.3	150
13	1113252	152.5	160
13	1114341	152.7	170
13	1115434	152.9	180
13	1116581	153.1	190
13	1117664	153.3	200
13	1118446	153.5	200
13	1118459	153.5	210
13	1119787	153.7	30
13	1121000	153.9	40
13	1121673	154.1	50
13	1123156	154.3	60
13	1124355	154.5	70
13	1126655	154.936	80
13	1126655	154.936	90
13	1127614	155.1	100
13	1128805	155.3	110
13	1129436	155.5	120
13	1130899	155.7	130
13	1132118	155.9	140
13	1133251	156.1	150
13	1134354	156.3	160
13	1135453	156.5	170
13	1136231	156.7	180
13	1137531	156.9	190
13	1139897	157.33	200
13	1139897	157.33	210
13	1140924	157.5	210
13	1140937	157.5	220
13	1142144	157.7	20
13	1143247	157.9	30
13	1144394	158.1	40
13	1145483	158.3	50
13	1146580	158.5	60
13	1147675	158.7	70
13	1148776	158.9	80
13	1149917	159.1	90
13	1151004	159.3	100
13	1152105	159.5	110
13	1153196	159.7	120
13	1154289	159.9	130
13	1155283	160.1	140
13	1156535	160.3	150
13	1157309	160.5	160
13	1158651	160.7	170
13	1159836	160.9	180
13	1160981	161.1	190
13	1162076	161.3	200
13	1162844	161.5	200
13	1162857	161.5	210
13	1164189	161.7	30
13	1165400	161.9	40
13	1166545	162.1	50
13	1167636	162.3	60
13	1168733	162.5	70
13	1169822	162.7	80
13	1170923	162.9	90
13	1172064	163.1	100
13	1173159	163.3	110
13	1174258	163.5	120
13	1175343	163.7	130
13	1176125	163.9	140
13	1177322	164.1	150
13	1178700	164.3	160
13	1179646	164.5	170
13	1180896	164.7	180
13	1181999	164.9	190
13	1183144	165.1	200
13	1184233	165.3	210
13	1185322	165.5	210
13	1185335	165.5	220
13	1187649	165.933	20
13	1187649	165.933	30
13	1188612	166.1	40
13	1189648	166.3	50
13	1190916	166.5	60
13	1192009	166.7	70
13	1193106	166.9	80
13	1194243	167.1	90
13	1195338	167.3	100
13	1196433	167.5	110
13	1197375	167.7	120
13	1198479	167.9	130
13	1199788	168.1	140
13	1201206	168.532	150
13	1201206	168.532	160
13	1202643	168.7	170
13	1204190	168.9	180
13	1205337	169.1	190
13	1206428	169.3	200
13	1207198	169.5	200
13	1207211	169.5	210
13	1208577	169.7	30
13	1209760	169.9	40
13	1212100	170.332	50
13	1212100	170.332	60
13	1213007	170.5	70
13	1214212	170.7	80
13	1215303	170.9	90
13	1216442	171.1	100
13	1217535	171.3	110
13	1218634	171.5	120
13	1219731	171.7	130
13	1220826	171.9	140
13	1221652	172.1	150
13	1222978	172.3	160
13	1224173	172.5	170
13	1225268	172.7	180
13	1226361	172.9	190
13	1227504	173.1	200
13	1228599	173.3	210
13	1229680	173.5	210
13	1229693	173.5	220
13	1230659	173.7	20
13	1231921	173.9	30
13	1234138	174.33	40
13	1234138	174.33	50
13	1235022	174.5	60
13	1236389	174.7	70
13	1237486	174.9	80
13	1238625	175.1	90
13	1239716	175.3	100
13	1240466	175.5	110
13	1241222	175.7	120
13	1241974	175.9	130
13	1242760	176.1	140
13	1243366	176.3	150
13	1244939	177.277	150
13	1244939	177.277	160
13	1244939	177.277	170
13	1245751	177.5	170
13	1249320	179.092	180
13	1249320	179.092	190
13	1249320	179.092	200
13	1249320	179.092	210
13	1249320	179.092	220
13	1249320	179.092	230
13	1249320	179.092	240
13	1249320	179.092	250
13	1249320	179.092	260
13	1249320	179.092	270
13	1256234	179.384	280
13	1256234	179.384	290
13	1256234	179.384	300
13	1257688	179.5	310
13	1262482	179.7	320
13	1266789	179.9	330
13	1270954	180.1	340
13	1278108	180.3	350
13	1280771	180.5	360
13	1282292	180.7	370
13	1287017	181.193	380
13	1287017	181.193	390
13	1287839	181.3	400
13	1289792	181.5	400
13	1289804	181.5	410
13	1291463	181.7	420
13	1296053	182.192	430
13	1296053	182.192	440
13	1296923	182.3	450
13	1298880	182.5	460
13	1300382	182.7	470
13	1302318	182.9	480
13	1304343	183.1	90
13	1306116	183.3	100
13	1307909	183.5	110
13	1311879	184.004	120
13	1311879	184.004	130
13	1312551	184.1	140
13	1317754	184.592	150
13	1317754	184.592	160
13	1318568	184.7	170
13	1320533	184.9	180
13	1322370	185.1	190
13	1324153	185.3	200
13	1325930	185.5	200
13	1325942	185.5	210
13	1327644	185.7	210
13	1329567	185.9	170
14	8400	10.562	30
14	8400	10.562	40
14	8400	10.562	50
14	9889	10.7	60
14	12624	10.9	70
14	14741	11.1	80
14	18616	11.529	90
14	18616	11.529	100
14	19679	11.7	110
14	21799	11.9	120
14	23744	12.1	130
14	25360	12.3	140
14	27310	12.5	150
14	30534	12.883	160
14	30749	12.9	170
14	32741	13.1	180
14	34203	13.3	190
14	36183	13.5	190
14	36198	13.5	200
14	38185	13.7	20
14	39968	13.9	30
14	41793	14.1	40
14	43850	14.484	50
14	44043	14.5	60
14	46323	14.7	70
14	48434	14.9	80
14	50677	15.1	90
14	52642	15.3	100
14	53580	15.5	110
14	54410	15.7	120
14	56971	15.9	130
14	59612	16.1	140
14	61683	16.3	150
14	63472	16.5	160
14	68651	17.166	170
14	68651	17.166	180
14	68651	17.166	190
14	70087	17.3	200
14	71879	17.5	200
14	71894	17.5	210
14	73682	17.7	40
14	75246	17.9	50
14	77275	18.1	60
14	78686	18.3	70
14	80631	18.5	80
14	83168	18.7	90
14	85233	18.9	100
14	87070	19.1	110
14	88851	19.3	120
14	90318	19.5	130
14	92182	19.7	140
14	93397	19.9	150
14	94284	20.1	160
14	96296	20.3	170
14	99063	20.5	180
14	101487	20.7	190
14	103280	20.9	200
14	105105	21.1	210
14	106882	21.3	220
14	108336	21.5	220
14	108351	21.5	230
14	110256	21.7	30
14	112326	21.9	40
14	115594	22.282	50
14	115807	22.3	60
14	117269	22.5	70
14	119434	22.7	80
14	122599	23.089	90
14	122758	23.1	100
14	124985	23.3	110
14	126790	23.5	120
14	128571	23.7	130
14	130360	23.9	140
14	135194	24.562	150
14	135194	24.562	160
14	135194	24.562	170
14	136685	24.7	180
14	139018	24.9	190
14	140983	25.1	200
14	142484	25.3	210
14	144727	25.5	210
14	144742	25.5	220
14	146701	25.7	20
14	148510	25.9	30
14	150339	26.1	40
14	152118	26.3	50
14	153897	26.5	60
14	156008	26.887	70
14	156177	26.9	80
14	158319	27.1	90
14	160868	27.3	100
14	162659	27.5	110
14	164126	27.7	120
14	166093	27.9	130
14	167800	28.1	140
14	170071	28.3	150
14	171966	28.5	160
14	173761	28.7	170
14	176459	29.084	180
14	176632	29.1	190
14	178806	29.3	200
14	180959	29.5	200
14	184579	29.968	10
14	184579	29.968	20
14	184579	29.968	30
14	186186	30.1	40
14	190985	30.763	50
14	190985	30.763	60
14	190985	30.763	70
14	192464	30.9	80
14	195249	31.1	90
14	197312	31.3	100
14	199105	31.5	110
14	200880	31.7	120
14	202496	31.9	130
14	204177	32.1	140
14	205774	32.3	150
14	208406	32.683	160
14	208599	32.7	170
14	210599	32.9	180
14	213113	33.1	190
14	214832	33.3	200
14	216014	33.5	200
14	216029	33.5	210
14	218088	33.7	40
14	220296	33.9	50
14	222541	34.1	60
14	224533	34.3	70
14	226075	34.5	80
14	227380	34.7	90
14	229557	34.9	100
14	231225	35.1	110
14	233386	35.3	120
14	235220	35.5	130
14	237168	35.7	140
14	238973	35.9	150
14	242211	36.283	160
14	242430	36.3	170
14	243785	36.5	180
14	245471	36.7	190
14	247781	36.9	200
14	249821	37.1	210
14	251335	37.3	220
14	252797	37.5	220
14	252812	37.5	230
14	255078	37.7	40
14	257072	37.9	50
14	260320	38.282	60
14	260535	38.3	70
14	262483	38.5	80
14	264031	38.7	90
14	265501	38.9	100
14	267520	39.1	110
14	268799	39.3	120
14	271213	39.5	130
14	273090	39.7	140
14	274287	39.9	150
14	275967	40.1	160
14	281074	40.536	170
14	281074	40.536	180
14	282292	40.7	190
14	284868	41.083	200
14	286735	41.284	210
14	287000	41.3	220
14	289485	41.5	220
14	289500	41.5	230
14	291556	41.7	20
14	293351	41.9	30
14	295178	42.1	40
14	296656	42.3	50
14	298644	42.5	60
14	300551	42.7	70
14	302017	42.9	80
14	304775	43.288	90
14	304948	43.3	100
14	307607	43.5	110
14	309618	43.7	120
14	311401	43.9	130
14	313230	44.1	140
14	315005	44.3	150
14	316804	44.5	160
14	318581	44.7	170
14	320369	44.9	180
14	322197	45.1	190
14	323988	45.3	200
14	325761	45.5	200
14	325776	45.5	210
14	327621	45.7	20
14	329412	45.9	30
14	331066	46.1	40
14	333018	46.3	50
14	334545	46.5	60
14	335783	46.7	70
14	337186	46.9	80
14	339250	47.1	90
14	341555	47.3	100
14	343270	47.5	110
14	348442	48.163	120
14	350926	48.512	130
14	353125	48.695	140
14	353125	48.695	150
14	355135	48.88	160
14	355135	48.88	170
14	355552	48.9	180
14	358208	49.1	190
14	360199	49.3	200
14	361986	49.5	200
14	362001	49.5	210
14	363537	49.7	20
14	367122	50.084	30
14	367333	50.1	40
14	369036	50.3	50
14	370514	50.5	60
14	372763	50.7	70
14	374680	50.9	80
14	376227	51.1	90
14	377463	51.3	100
14	378868	51.5	110
14	380882	51.7	120
14	383427	51.9	130
14	385311	52.1	140
14	386775	52.3	150
14	389036	52.5	160
14	390948	52.7	170
14	392734	52.9	180
14	394555	53.1	190
14	396070	53.3	200
14	397045	53.5	200
14	397060	53.5	210
14	399455	53.7	40
14	401280	53.9	50
14	403583	54.1	60
14	405482	54.3	70
14	407277	54.5	80
14	408778	54.7	90
14	410070	54.9	100
14	412160	55.1	110
14	414135	55.3	120
14	415721	55.5	130
14	417910	55.7	140
14	419908	55.9	150
14	421749	56.1	160
14	423538	56.3	170
14	425313	56.5	180
14	427104	56.7	190
14	428420	56.9	200
14	429582	57.1	210
14	432346	57.481	220
14	432533	57.5	220
14	432548	57.5	230
14	435489	57.7	50
14	437132	57.9	60
14	438863	58.1	70
14	440466	58.3	80
14	444623	58.682	90
14	444822	58.7	100
14	446719	58.9	110
14	448191	59.1	120
14	450319	59.3	130
14	452020	59.5	140
14	455810	59.882	150
14	456027	59.9	160
14	458019	60.1	170
14	459808	60.3	180
14	461424	60.5	190
14	463366	60.7	200
14	464934	60.9	210
14	466131	61.1	220
14	468457	61.3	230
14	470616	61.5	230
14	470631	61.5	240
14	472265	61.7	220
14	473741	61.9	30
14	476050	62.1	40
14	477706	62.3	50
14	479180	62.5	60
14	482108	62.884	70
14	482317	62.9	80
14	484781	63.1	90
14	486759	63.3	100
14	488261	63.5	110
14	492061	63.885	120
14	492273	63.9	130
14	494274	64.1	140
14	496059	64.3	150
14	499257	64.684	160
14	499468	64.7	170
14	501418	64.9	180
14	503076	65.1	190
14	505026	65.3	200
14	506819	65.5	200
14	506834	65.5	210
14	508444	65.7	20
14	509308	65.9	30
14	511866	66.1	40
14	514026	66.3	50
14	516844	66.683	60
14	517057	66.7	70
14	519465	66.9	80
14	522305	67.283	90
14	522480	67.3	100
14	524522	67.5	110
14	526727	67.7	120
14	528636	67.9	130
14	530461	68.1	140
14	532242	68.3	150
14	534039	68.5	160
14	535501	68.7	170
14	537501	68.9	180
14	539446	69.1	190
14	540922	69.3	200
14	542664	69.5	200
14	542679	69.5	210
14	546097	69.884	30
14	546272	69.9	40
14	549587	70.282	50
14	549762	70.3	60
14	551574	70.5	70
14	553763	70.7	80
14	555218	70.9	90
14	556418	71.1	100
14	558796	71.3	110
14	560905	71.5	120
14	563023	71.7	130
14	564812	71.9	140
14	566641	72.1	150
14	568424	72.3	160
14	570206	72.5	170
14	571694	72.7	180
14	573134	72.9	190
14	574622	73.1	200
14	576060	73.3	210
14	577490	73.5	210
14	577505	73.5	220
14	578995	73.7	20
14	580435	73.9	30
14	581911	74.1	40
14	583361	74.3	50
14	584799	74.5	60
14	586235	74.7	70
14	587683	74.9	80
14	589161	75.1	90
14	590605	75.3	100
14	592041	75.5	110
14	593479	75.7	120
14	594923	75.9	130
14	596413	76.1	140
14	597851	76.3	150
14	599291	76.5	160
14	601839	76.882	170
14	602016	76.9	180
14	603665	77.1	190
14	605111	77.3	200
14	606535	77.5	200
14	606549	77.5	210
14	608039	77.7	20
14	609477	77.9	30
14	610963	78.1	40
14	613238	78.486	50
14	613513	78.5	60
14	615277	78.7	70
14	616737	78.9	80
14	618223	79.1	90
14	619669	79.3	100
14	621107	79.5	110
14	622545	79.7	120
14	623991	79.9	130
14	625475	80.1	140
14	628067	80.493	150
14	628202	80.5	160
14	629775	80.7	170
14	631005	80.9	180
14	632666	81.1	190
14	634204	81.3	200
14	635628	81.5	200
14	636802	81.683	10
14	636977	81.7	20
14	638575	81.9	30
14	639507	82.1	40
14	641238	82.3	50
14	642976	82.5	60
14	644422	82.7	70
14	645862	82.9	80
14	647338	83.1	90
14	648788	83.3	100
14	650226	83.5	110
14	651347	83.7	120
14	652994	83.9	130
14	654439	84.1	140
14	656873	84.482	150
14	657026	84.5	160
14	658670	84.7	170
14	661295	85.082	180
14	661570	85.1	190
14	663332	85.3	200
14	664544	85.5	200
14	664558	85.5	210
14	666043	85.7	30
14	667519	85.9	40
14	669192	86.1	50
14	670732	86.3	60
14	672172	86.5	70
14	673616	86.7	80
14	675052	86.9	90
14	676536	87.1	100
14	679090	87.481	110
14	679265	87.5	120
14	681986	87.882	130
14	682161	87.9	140
14	683810	88.1	150
14	685242	88.3	160
14	686680	88.5	170
14	687589	88.7	180
14	688798	88.9	190
14	690599	89.1	200
14	692317	89.3	210
14	693914	89.5	210
14	693928	89.5	220
14	695526	89.7	20
14	696960	89.9	30
14	698444	90.1	40
14	699882	90.3	50
14	701326	90.5	60
14	702770	90.7	70
14	704204	90.9	80
14	705684	91.1	90
14	707124	91.3	100
14	708560	91.5	110
14	710014	91.7	120
14	711135	91.9	130
14	712836	92.1	140
14	714390	92.3	150
14	715659	92.5	160
14	717260	92.7	170
14	718726	92.9	180
14	720210	93.1	190
14	722684	93.483	200
14	722859	93.5	200
14	722873	93.5	210
14	724625	93.7	20
14	726065	93.9	30
14	728543	94.284	40
14	728734	94.3	50
14	730453	94.5	60
14	732694	94.883	70
14	734471	95.086	80
14	734716	95.1	90
14	736013	95.3	100
14	738603	95.683	110
14	739996	95.887	120
14	741714	96.083	130
14	741915	96.1	140
14	743454	96.3	150
14	744757	96.5	160
14	746301	96.7	170
14	748010	96.9	180
14	749586	97.1	190
14	751945	97.5	190
14	752613	97.574	200
14	752613	97.574	210
14	753554	97.7	30
14	755283	97.9	40
14	756949	98.1	50
14	758389	98.3	60
14	759532	98.5	70
14	761263	98.7	80
14	762721	98.9	90
14	764215	99.1	100
14	765474	99.3	110
14	767083	99.5	120
14	768545	99.7	130
14	769983	99.9	140
14	771469	100.1	150
14	772907	100.3	160
14	774343	100.5	170
14	775301	100.7	180
14	777145	100.9	190
14	778739	101.1	200
14	780181	101.3	210
14	781611	101.5	210
14	781625	101.5	220
14	783113	101.7	20
14	785711	102.085	30
14	785884	102.1	40
14	787481	102.3	50
14	788925	102.5	60
14	790363	102.7	70
14	791797	102.9	80
14	793287	103.1	90
14	794414	103.3	100
14	795811	103.5	110
14	797493	103.7	120
14	799093	103.9	130
14	800581	104.1	140
14	802025	104.3	150
14	803465	104.5	160
14	804895	104.7	170
14	807949	105.127	180
14	807949	105.127	190
14	808929	105.3	200
14	810646	105.5	200
14	810660	105.5	210
14	813358	105.883	20
14	813531	105.9	30
14	815180	106.1	40
14	816618	106.3	50
14	818064	106.5	60
14	819500	106.7	70
14	820702	106.9	80
14	822365	107.1	90
14	823895	107.3	100
14	825162	107.5	110
14	826765	107.7	120
14	827686	107.9	130
14	829307	108.1	140
14	831179	108.3	150
14	832627	108.5	160
14	833750	108.7	170
14	835401	108.9	180
14	837001	109.1	190
14	838211	109.3	200
14	839816	109.5	200
14	839830	109.5	210
14	841412	109.7	20
14	843900	110.083	30
14	844113	110.1	40
14	845827	110.3	50
14	848375	110.684	60
14	849790	110.886	70
14	849995	110.9	80
14	851653	111.1	90
14	853093	111.3	100
14	854297	111.5	110
14	855904	111.7	120
14	857212	111.9	130
14	860083	112.285	140
14	860258	112.3	150
14	861857	112.5	160
14	863295	112.7	170
14	864503	112.9	180
14	866164	113.1	190
14	867702	113.3	200
14	869118	113.5	200
14	869132	113.5	210
14	870311	113.7	20
14	871982	113.9	30
14	873572	114.1	40
14	875012	114.3	50
14	876450	114.5	60
14	877884	114.7	70
14	879322	114.9	80
14	880578	115.1	90
14	881869	115.3	100
14	885430	115.772	110
14	885430	115.772	120
14	886441	115.9	130
14	888143	116.1	140
14	889593	116.3	150
14	890791	116.5	160
14	892400	116.7	170
14	894532	117.084	180
14	894787	117.1	190
14	896781	117.3	200
14	898330	117.5	200
14	898344	117.5	210
14	899826	117.7	20
14	901270	117.9	30
14	902760	118.1	40
14	904192	118.3	50
14	905636	118.5	60
14	907074	118.7	70
14	908337	118.9	80
14	909435	119.1	90
14	912554	119.484	100
14	912769	119.5	110
14	914378	119.7	120
14	917008	120.089	130
14	917151	120.1	140
14	918749	120.3	150
14	920188	120.5	160
14	921636	120.7	170
14	923072	120.9	180
14	924377	121.1	190
14	925732	121.3	200
14	927281	121.5	200
14	927295	121.5	210
14	928790	121.7	20
14	930084	121.9	30
14	931803	122.1	40
14	933359	122.3	50
14	934563	122.5	60
14	936172	122.7	70
14	937714	122.9	80
14	939198	123.1	90
14	940640	123.3	100
14	941537	123.5	110
14	942803	123.7	120
14	944892	123.9	130
14	946509	124.1	140
14	947947	124.3	150
14	949387	124.5	160
14	950823	124.7	170
14	952259	124.9	180
14	953436	125.1	190
14	955085	125.3	200
14	956395	125.5	200
14	956409	125.5	210
14	957748	125.7	30
14	959536	125.9	40
14	961112	126.1	50
14	962560	126.3	60
14	963988	126.5	70
14	965194	126.7	80
14	966805	126.9	90
14	970288	127.382	100
14	970288	127.382	110
14	971169	127.5	120
14	972729	127.7	130
14	974173	127.9	140
14	975338	128.1	150
14	976779	128.3	160
14	978190	128.5	170
14	981120	128.887	180
14	981267	128.9	190
14	983005	129.1	200
14	984135	129.3	210
14	985463	129.5	210
14	985476	129.5	220
14	987496	129.885	220
14	987648	129.9	230
14	988640	130.1	240
14	990854	130.482	250
14	991006	130.5	260
14	992016	130.7	270
14	993279	130.9	280
14	994524	131.1	290
14	995623	131.3	300
14	996716	131.5	310
14	997809	131.7	320
14	998908	131.9	330
14	1000045	132.1	340
14	1000898	132.3	350
14	1002163	132.5	360
14	1003352	132.7	370
14	1004449	132.9	380
14	1005592	133.1	390
14	1007477	133.485	400
14	1007617	133.5	400
14	1007630	133.5	410
14	1008908	133.7	20
14	1010009	133.9	30
14	1011146	134.1	40
14	1013031	134.482	50
14	1013185	134.5	60
14	1014439	134.7	70
14	1015538	134.9	80
14	1016681	135.1	90
14	1017772	135.3	100
14	1018865	135.5	110
14	1019962	135.7	120
14	1021055	135.9	130
14	1022196	136.1	140
14	1023291	136.3	150
14	1024390	136.5	160
14	1025479	136.7	170
14	1026332	136.9	180
14	1027641	137.1	190
14	1028594	137.3	200
14	1029849	137.5	200
14	1029862	137.5	210
14	1031077	137.7	20
14	1032174	137.9	30
14	1033319	138.1	40
14	1035196	138.485	50
14	1035348	138.5	60
14	1036366	138.7	70
14	1037625	138.9	80
14	1038626	139.1	90
14	1039885	139.3	100
14	1041082	139.5	110
14	1042179	139.7	120
14	1043278	139.9	130
14	1044413	140.1	140
14	1046296	140.483	150
14	1046452	140.5	160
14	1048498	140.883	170
14	1048650	140.9	180
14	1049954	141.1	190
14	1051726	141.483	200
14	1051908	141.5	200
14	1051921	141.5	210
14	1054093	141.885	20
14	1054245	141.9	30
14	1055542	142.1	40
14	1056640	142.3	50
14	1057737	142.5	60
14	1058836	142.7	70
14	1059927	142.9	80
14	1061860	143.283	90
14	1062012	143.3	100
14	1063270	143.5	110
14	1064858	143.883	120
14	1064990	143.9	130
14	1066249	144.1	140
14	1067588	144.3	150
14	1068848	144.5	160
14	1070726	144.886	170
14	1070876	144.9	180
14	1071936	145.1	190
14	1073205	145.3	200
14	1074144	145.5	200
14	1074157	145.5	210
14	1075450	145.7	30
14	1076643	145.9	40
14	1077782	146.1	50
14	1078627	146.3	60
14	1079670	146.5	70
14	1080935	146.7	80
14	1082206	146.9	90
14	1083353	147.1	100
14	1084129	147.3	110
14	1085437	147.5	120
14	1086648	147.7	130
14	1087749	147.9	140
14	1089680	148.283	150
14	1089832	148.3	160
14	1091090	148.5	170
14	1091939	148.7	180
14	1093204	148.9	190
14	1094437	149.1	200
14	1095532	149.3	210
14	1096621	149.5	210
14	1096634	149.5	220
14	1097757	149.7	20
14	1099684	150.083	30
14	1099838	150.1	40
14	1101096	150.3	50
14	1102191	150.5	60
14	1103282	150.7	70
14	1104379	150.9	80
14	1105207	151.1	90
14	1106513	151.3	100
14	1107730	151.5	110
14	1108825	151.7	120
14	1109920	151.9	130
14	1111059	152.1	140
14	1112156	152.3	150
14	1113251	152.5	160
14	1114340	152.7	170
14	1115433	152.9	180
14	1116580	153.1	190
14	1117663	153.3	200
14	1118445	153.5	200
14	1118458	153.5	210
14	1119786	153.7	30
14	1121540	154.083	40
14	1121672	154.1	50
14	1123155	154.3	60
14	1124354	154.5	70
14	1125455	154.7	80
14	1126298	154.9	90
14	1127613	155.1	100
14	1129303	155.483	110
14	1129435	155.5	120
14	1130898	155.7	130
14	1132117	155.9	140
14	1133250	156.1	150
14	1134353	156.3	160
14	1135452	156.5	170
14	1136230	156.7	180
14	1137530	156.9	190
14	1138477	157.1	200
14	1139510	157.3	210
14	1140923	157.5	210
14	1140936	157.5	220
14	1142143	157.7	20
14	1143246	157.9	30
14	1144393	158.1	40
14	1145482	158.3	50
14	1146579	158.5	60
14	1147674	158.7	70
14	1148775	158.9	80
14	1149916	159.1	90
14	1151003	159.3	100
14	1152104	159.5	110
14	1153195	159.7	120
14	1155128	160.081	130
14	1155282	160.1	140
14	1156534	160.3	150
14	1157308	160.5	160
14	1158650	160.7	170
14	1159835	160.9	180
14	1160980	161.1	190
14	1162075	161.3	200
14	1162843	161.5	200
14	1162856	161.5	210
14	1164188	161.7	30
14	1165399	161.9	40
14	1166544	162.1	50
14	1167635	162.3	60
14	1168732	162.5	70
14	1169821	162.7	80
14	1170922	162.9	90
14	1172063	163.1	100
14	1173158	163.3	110
14	1174257	163.5	120
14	1175342	163.7	130
14	1177189	164.082	140
14	1177321	164.1	150
14	1179493	164.485	160
14	1179645	164.5	170
14	1180895	164.7	180
14	1181998	164.9	190
14	1183143	165.1	200
14	1184232	165.3	210
14	1185321	165.5	210
14	1185334	165.5	220
14	1186451	165.7	20
14	1187302	165.9	30
14	1189497	166.281	40
14	1189647	166.3	50
14	1190915	166.5	60
14	1192008	166.7	70
14	1193105	166.9	80
14	1194242	167.1	90
14	1195337	167.3	100
14	1197220	167.685	110
14	1198280	167.882	120
14	1198478	167.9	130
14	1199787	168.1	140
14	1201524	168.576	150
14	1201524	168.576	160
14	1202642	168.7	170
14	1204189	168.9	180
14	1205336	169.1	190
14	1206427	169.3	200
14	1207197	169.5	200
14	1207210	169.5	210
14	1208576	169.7	30
14	1209759	169.9	40
14	1210898	170.1	50
14	1211747	170.3	60
14	1213006	170.5	70
14	1214211	170.7	80
14	1215302	170.9	90
14	1216441	171.1	100
14	1217534	171.3	110
14	1218633	171.5	120
14	1219730	171.7	130
14	1220825	171.9	140
14	1221651	172.1	150
14	1222977	172.3	160
14	1224172	172.5	170
14	1225267	172.7	180
14	1226360	172.9	190
14	1227503	173.1	200
14	1228598	173.3	210
14	1229679	173.5	210
14	1230514	173.688	10
14	1230658	173.7	20
14	1231920	173.9	30
14	1233063	174.1	40
14	1234867	174.485	50
14	1235021	174.5	60
14	1236388	174.7	70
14	1237485	174.9	80
14	1238624	175.1	90
14	1239715	175.3	100
14	1240465	175.5	110
14	1241221	175.7	120
14	1241973	175.9	130
14	1243233	176.285	140
14	1243365	176.3	150
14	1245750	177.5	150
14	1245914	177.578	150
14	1245914	177.578	160
14	1245914	177.578	170
14	1250930	179.138	180
14	1250930	179.138	190
14	1250930	179.138	200
14	1254554	179.325	210
14	1254554	179.325	220
14	1254554	179.325	230
14	1254554	179.325	240
14	1257999	179.514	250
14	1257999	179.514	260
14	1257999	179.514	270
14	1257999	179.514	280
14	1257999	179.514	290
14	1262846	179.701	300
14	1262846	179.701	310
14	1262846	179.701	320
14	1266788	179.9	330
14	1270953	180.1	340
14	1278107	180.3	350
14	1280770	180.5	360
14	1282291	180.7	370
14	1284192	180.9	380
14	1285958	181.1	390
14	1287838	181.3	400
14	1289791	181.5	400
14	1291308	181.692	410
14	1291462	181.7	420
14	1293122	181.9	430
14	1294857	182.1	440
14	1296922	182.3	450
14	1298879	182.5	460
14	1300381	182.7	470
14	1302317	182.9	480
14	1304342	183.1	90
14	1306115	183.3	100
14	1307908	183.5	110
14	1309687	183.7	120
14	1310947	183.9	130
14	1312550	184.1	140
14	1314843	184.3	150
14	1316668	184.5	160
14	1318567	184.7	170
14	1320532	184.9	180
14	1322369	185.1	190
14	1324152	185.3	200
14	1325929	185.5	200
14	1325941	185.5	210
14	1327643	185.7	210
14	1329566	185.9	170
14	1331374	186.1	180
14	1332870	186.3	190
14	1347745	188.902	60
14	1347745	188.902	70
14	1347745	188.902	80
14	1350513	189.203	90
14	1350513	189.203	100
14	1350513	189.203	110
14	1350513	189.203	120
14	1350513	189.203	130
14	1350513	189.203	140
14	1350513	189.203	150
14	1350513	189.203	160
14	1350513	189.203	170
14	1350513	189.203	180
14	1350513	189.203	190
14	1353640	189.3	200
14	1355998	189.5	200
14	1357812	189.8	200
14	1357812	189.8	210
14	1358515	189.9	170
14	1360459	190.1	180
14	1362173	190.3	190
14	1363605	190.5	200
14	1365054	190.7	210
14	1366504	190.9	210
14	1367989	191.1	90
14	1369439	191.3	100
14	1370877	191.5	110
14	1372145	191.7	120
14	1373472	191.9	130
14	1375012	192.1	140
14	1376707	192.3	150
14	1378163	192.5	160
14	1379595	192.7	170
14	1381039	192.9	180
14	1382517	193.1	190
14	1383963	193.3	200
14	1385389	193.5	200
14	1385400	193.5	210
14	1386682	193.7	210
14	1388295	193.9	170
14	1389801	194.1	180
14	1391245	194.3	190
14	1392681	194.5	200
14	1394116	194.7	210
14	1395578	194.9	210
14	1397067	195.1	90
14	1398511	195.3	100
14	1399953	195.5	110
14	1401112	195.7	120
14	1402342	195.9	130
14	1404275	196.1	140
14	1405340	196.3	150
14	1406956	196.5	160
14	1408699	196.7	170
14	1411726	197.2	180
14	1411726	197.2	190
14	1412669	197.3	200
14	1414531	197.5	200
14	1414542	197.5	210
14	1415992	197.7	210
16	1248329	178.677	150
16	1248642	178.928	160
16	1252116	179.18	170
16	1253418	179.291	180
16	1259040	179.537	190
16	1265000	179.782	200
16	1268560	180.027	210
16	1268560	180.027	220
16	1268560	180.027	230
16	1268560	180.027	240
16	1268560	180.027	250
16	1268560	180.027	260
16	1268560	180.027	270
16	1268560	180.027	280
16	1268560	180.027	290
16	1268560	180.027	300
16	1268560	180.027	310
16	1268560	180.027	320
16	1268560	180.027	330
16	1270956	180.1	340
16	1278110	180.3	350
16	1283152	180.746	360
16	1283152	180.746	370
16	1284195	180.9	380
16	1285961	181.1	390
16	1287841	181.3	400
16	1289806	181.5	410
16	1291465	181.7	420
16	1293125	181.9	430
16	1294860	182.1	440
16	1296925	182.3	450
16	1298882	182.5	460
16	1300370	182.7	460
16	1300384	182.7	470
16	1302320	182.9	480
16	1304345	183.1	90
16	1306118	183.3	100
16	1307911	183.5	110
16	1309690	183.7	120
16	1310950	183.9	130
16	1312553	184.1	140
16	1314846	184.3	150
16	1316671	184.5	160
16	1318570	184.7	170
16	1320535	184.9	180
16	1322372	185.1	190
16	1324155	185.3	200
16	1325944	185.5	210
16	1327646	185.7	210
16	1329569	185.9	170
16	1331376	186.1	180
16	1332872	186.3	190
16	1334306	186.5	200
16	1335458	186.7	200
16	1343584	188.703	70
16	1343584	188.703	80
16	1343584	188.703	90
16	1343584	188.703	100
16	1343584	188.703	110
16	1343584	188.703	120
16	1343584	188.703	130
16	1343584	188.703	140
16	1343584	188.703	150
16	1343584	188.703	160
16	1343584	188.703	170
16	1351841	189.209	180
16	1351841	189.209	190
16	1353642	189.3	200
16	1359135	189.946	150
16	1359135	189.946	160
16	1359135	189.946	170
16	1360461	190.1	180
16	1362175	190.3	190
16	1363607	190.5	200
16	1365043	190.7	200
16	1365056	190.7	210
16	1366506	190.9	210
16	1367991	191.1	90
16	1369441	191.3	100
16	1370879	191.5	110
16	1374412	192.002	120
16	1374412	192.002	130
16	1375014	192.1	140
16	1376709	192.3	150
16	1378165	192.5	160
16	1379597	192.7	170
16	1381041	192.9	180
16	1382519	193.1	190
16	1383965	193.3	200
16	1385402	193.5	210
16	1386684	193.7	210
16	1388297	193.9	170
16	1389803	194.1	180
16	1391247	194.3	190
16	1392683	194.5	200
16	1394105	194.7	200
16	1394118	194.7	210
16	1395580	194.9	210
16	1397069	195.1	90
16	1398513	195.3	100
16	1401844	195.8	110
16	1401844	195.8	120
16	1402344	195.9	130
16	1406314	196.406	140
16	1406314	196.406	150
16	1406958	196.5	160
16	1408701	196.7	170
16	1410141	196.9	180
16	1411110	197.1	190
16	1412671	197.3	200
16	1414544	197.5	210
16	1415994	197.7	210
16	1417441	197.9	170
16	1418634	198.1	180
16	1419723	198.3	190
16	1420264	198.5	200
16	1420716	198.7	200
16	1420728	198.7	210
16	1421198	198.9	210
16	1422178	199.7	80
16	1422178	199.7	90
16	1422178	199.7	100
16	1422178	199.7	110
16	1423433	199.9	120
16	1424072	200.1	130
16	1424538	200.3	140
16	1431882	201.085	150
16	1431882	201.085	160
16	1431882	201.085	170
16	1432406	201.1	180
16	1434857	201.499	190
16	1434989	201.5	200
16	1435877	201.7	210
16	1437850	201.9	190
16	1439624	202.1	200
16	1440819	202.3	210
16	1442515	202.5	220
16	1444109	202.7	220
16	1445447	202.901	230
16	1445447	202.901	240
16	1446536	203.1	130
16	1447384	203.3	140
16	1449885	203.702	150
16	1449885	203.702	160
16	1450964	203.9	170
16	1451894	204.1	180
16	1452509	204.3	190
16	1453402	204.5	200
16	1456113	204.899	210
16	1456245	204.9	220
16	1457696	205.1	230
16	1458825	205.3	240
16	1459625	205.5	250
16	1460544	205.7	260
16	1461519	205.9	170
16	1462724	206.1	180
[...]
46	6948984	1001.681	180
46	6948984	1001.681	190
46	6950439	1001.9	190
46	6950957	1002.08	190
46	6950957	1002.08	200
46	6951213	1002.1	210
46	6952766	1002.3	120
46	6954147	1002.5	130
46	6954933	1002.7	140
46	6955960	1002.9	150
46	6957502	1003.1	160
46	6959530	1003.681	170
46	6959530	1003.681	180
46	6959789	1003.7	190
46	6961556	1003.9	200
46	6963064	1004.1	210
46	6964165	1004.3	220
46	6965262	1004.5	150
46	6967944	1005.083	160
46	6967944	1005.083	170
46	6968215	1005.1	180
46	6969714	1005.3	190
46	6970174	1005.5	200
46	6972718	1005.9	200
46	6973534	1006.088	190
46	6973534	1006.088	200
46	6973804	1006.1	210
46	6975313	1006.3	120
46	6976408	1006.5	130
46	6977505	1006.7	140
46	6978594	1006.9	150
46	6979745	1007.1	160
46	6980836	1007.3	170
46	6981929	1007.5	180
46	6984603	1008.08	190
46	6984603	1008.08	200
46	6984883	1008.1	210
46	6986384	1008.3	220
46	6987485	1008.5	150
46	6988576	1008.7	160
46	6989353	1008.9	170
46	6990226	1009.1	180
46	6991540	1009.3	190
46	6993040	1009.5	200
46	6994137	1009.7	210
46	6995220	1009.9	210
46	6995231	1009.9	220
46	6996381	1010.1	210
46	6997482	1010.3	120
46	6998573	1010.5	130
46	6999670	1010.7	140
46	7000767	1010.9	150
46	7003419	1011.479	160
46	7006068	1012.068	170
46	7006068	1012.068	180
46	7006068	1012.068	190
46	7006068	1012.068	200
46	7006678	1012.1	210
46	7008259	1012.3	220
46	7009291	1012.5	140
46	7010787	1012.7	150
46	7011262	1012.9	160
46	7012387	1013.1	170
46	7014166	1013.3	180
46	7015269	1013.5	190
46	7016364	1013.7	200
46	7017449	1013.9	200
46	7017460	1013.9	210
46	7018295	1014.1	210
46	7019332	1014.3	120
46	7020828	1014.5	130
46	7022885	1015.085	140
46	7022885	1015.085	150
46	7023154	1015.1	160
46	7024687	1015.3	170
46	7026370	1015.5	180
46	7027471	1015.7	190
46	7028576	1015.9	200
46	7029720	1016.1	210
46	7030817	1016.3	220
46	7032818	1016.881	140
46	7032818	1016.881	150
46	7035722	1017.287	160
46	7035722	1017.287	170
46	7035993	1017.3	180
46	7038710	1017.881	190
46	7038710	1017.881	200
46	7038977	1017.9	200
46	7038988	1017.9	210
46	7040464	1018.1	220
46	7041980	1018.3	120
46	7043077	1018.5	130
46	7044166	1018.7	140
46	7045263	1018.9	150
46	7046404	1019.1	160
46	7047505	1019.3	170
46	7048588	1019.5	180
46	7049054	1019.7	190
46	7050132	1019.9	200
48	6487090	948.334	350
48	6487524	948.611	350
48	6487907	948.89	350
48	6488494	949.167	350
48	6489041	949.443	350
48	6489663	949.723	350
48	6490386	950.002	350
48	6494675	950.279	350
48	6496871	950.558	350
48	6499957	950.838	350
48	6503395	951.116	350
48	6509419	951.393	350
48	6515050	951.67	350
48	6517017	951.95	350
48	6517765	952.1	350
48	6518797	952.227	360
48	6521056	952.504	370
48	6521056	952.504	380
48	6524441	952.781	390
48	6527064	953.059	400
48	6529768	953.341	410
48	6532716	953.62	420
48	6535268	953.897	430
48	6538744	954.173	440
48	6538744	954.173	450
48	6543998	954.449	150
48	6551831	954.73	160
48	6551831	954.73	170
48	6551831	954.73	180
48	6551831	954.73	190
48	6551831	954.73	200
48	6551831	954.73	210
48	6551831	954.73	220
48	6551831	954.73	230
48	6551831	954.73	240
48	6551831	954.73	250
48	6551831	954.73	260
48	6551831	954.73	270
48	6561339	955.013	280
48	6561339	955.013	290
48	6561339	955.013	300
48	6561339	955.013	310
48	6561339	955.013	320
48	6566325	955.291	330
48	6566325	955.291	340
48	6566325	955.291	350
48	6566325	955.291	360
48	6566325	955.291	370
48	6566325	955.291	380
48	6566325	955.291	390
48	6566325	955.291	400
48	6566325	955.291	410
48	6566325	955.291	420
48	6566325	955.291	430
48	6566325	955.291	440
48	6566325	955.291	450
48	6566325	955.291	460
48	6566325	955.291	470
48	6566325	955.291	480
48	6566325	955.291	490
48	6566325	955.291	500
48	6575464	955.57	510
48	6575464	955.57	520
48	6575464	955.57	530
48	6575464	955.57	540
48	6578928	955.847	550
48	6578928	955.847	560
48	6578928	955.847	570
48	6582526	956.1	570
48	6583151	956.126	580
48	6583151	956.126	590
48	6583151	956.126	600
48	6585335	956.3	610
48	6587019	956.5	620
48	6589351	956.7	630
48	6591249	956.9	640
48	6595754	957.377	650
48	6598021	957.656	660
48	6598021	957.656	670
48	6598584	957.7	680
48	6600750	957.9	690
48	6602833	958.1	700
48	6604611	958.3	590
48	6606655	958.5	600
48	6608726	958.7	610
48	6610840	958.9	620
48	6614373	959.1	630
48	6619537	959.3	640
48	6621737	959.5	650
48	6624716	959.7	660
48	6626914	959.9	670
48	6630179	960.1	670
48	6630192	960.1	680
48	6634847	960.3	690
48	6640305	960.5	700
48	6642282	960.7	710
48	6644249	960.9	720
48	6650126	961.376	730
48	6650126	961.376	740
48	6652331	961.5	750
48	6654867	961.7	760
48	6657227	961.9	770
48	6658935	962.1	780
48	6665471	962.3	160
48	6667810	962.5	170
48	6669631	962.7	180
48	6671414	962.9	190
48	6673251	963.1	200
48	6675038	963.3	210
48	6676620	963.5	220
48	6680917	963.987	230
48	6680917	963.987	240
48	6681637	964.1	240
48	6684245	964.379	250
48	6684245	964.379	260
48	6685077	964.5	270
48	6687342	964.7	280
48	6689415	964.9	290
48	6691034	965.1	300
48	6693069	965.3	310
48	6694964	965.5	320
48	6696427	965.7	330
48	6698495	965.9	340
48	6700387	966.1	350
48	6702194	966.3	120
48	6703981	966.5	130
48	6705758	966.7	140
48	6707551	966.9	150
48	6709384	967.1	160
48	6710868	967.3	170
48	6714961	967.785	180
48	6714961	967.785	190
48	6717480	968.1	190
48	6718262	968.176	140
48	6718262	968.176	150
48	6719408	968.3	160
48	6722084	968.5	170
48	6723588	968.7	180
48	6725308	968.9	190
48	6727533	969.1	200
48	6728818	969.3	210
48	6730639	969.5	190
48	6732325	969.7	200
48	6733856	969.9	210
48	6736008	970.1	210
48	6737889	970.3	130
48	6740286	970.5	140
48	6741765	970.7	150
48	6743309	970.9	160
48	6745032	971.1	170
48	6747155	971.3	180
48	6749347	971.5	190
48	6751140	971.7	200
48	6752899	971.9	210
48	6754372	972.1	210
48	6754384	972.1	220
48	6755838	972.3	160
48	6757282	972.5	170
48	6760505	972.98	180
48	6762047	973.258	190
48	6762047	973.258	200
48	6764740	973.577	190
48	6764740	973.577	200
48	6765796	973.7	210
48	6767524	973.9	220
48	6768714	974.1	230
48	6770443	974.3	120
48	6773579	974.777	130
48	6773579	974.777	140
48	6776785	975.191	150
48	6776785	975.191	160
48	6777539	975.3	170
48	6779268	975.5	180
48	6780700	975.7	190
48	6781831	975.9	200
48	6783236	976.1	200
48	6783248	976.1	210
48	6785084	976.3	160
48	6787720	976.778	170
48	6787720	976.778	180
48	6788808	976.9	190
48	6790973	977.1	200
48	6792108	977.3	210
48	6793494	977.5	190
48	6795349	977.7	200
48	6796788	977.9	210
48	6798284	978.1	210
48	6799432	978.3	120
48	6800806	978.5	130
48	6802326	978.7	140
48	6803711	978.9	150
48	6805602	979.1	160
48	6806739	979.3	170
48	6807865	979.5	180
48	6809353	979.7	190
48	6811088	979.9	200
48	6812505	980.1	200
48	6812517	980.1	210
48	6814364	980.3	160
48	6815798	980.5	170
48	6817250	980.7	180
48	6818377	980.9	190
48	6819791	981.1	200
48	6821334	981.3	210
48	6824899	981.776	190
48	6824899	981.776	200
48	6825739	981.9	210
48	6827522	982.1	210
48	6828663	982.3	120
48	6830349	982.5	130
48	6831871	982.7	140
48	6833305	982.9	150
48	6834793	983.1	160
48	6836243	983.3	170
48	6837673	983.5	180
48	6839117	983.7	190
48	6840553	983.9	200
48	6842024	984.1	200
48	6842036	984.1	210
48	6843493	984.3	160
48	6844618	984.5	170
48	6848175	984.976	180
48	6848175	984.976	190
48	6851138	985.38	200
48	6851138	985.38	210
48	6851966	985.5	190
48	6853685	985.7	200
48	6855128	985.9	210
48	6856314	986.1	210
48	6858013	986.3	120
48	6859230	986.5	130
48	6860606	986.7	140
48	6862450	986.9	150
48	6863940	987.1	160
48	6865372	987.3	170
48	6866820	987.5	180
48	6867941	987.7	190
48	6869000	987.9	200
48	6870808	988.1	200
48	6870820	988.1	210
48	6872667	988.3	160
48	6874125	988.5	170
48	6875257	988.7	180
48	6876660	988.9	190
48	6878120	989.1	200
48	6879968	989.3	210
48	6881419	989.5	190
48	6882848	989.7	200
48	6883326	989.9	210
48	6883843	990.1	210
48	6884313	990.3	120
48	6886606	990.776	130
48	6886606	990.776	140
48	6888522	990.9	150
48	6890674	991.1	160
48	6891783	991.3	170
48	6892876	991.5	180
48	6893969	991.7	190
48	6895498	992.1	190
48	6896229	992.181	120
48	6896229	992.181	130
48	6897060	992.3	140
48	6898448	992.5	150
48	6899533	992.7	160
48	6900634	992.9	170
48	6901775	993.1	180
48	6902868	993.3	190
48	6903967	993.5	200
48	6905064	993.7	210
48	6906156	993.9	220
48	6907302	994.1	230
48	6908403	994.3	130
48	6909189	994.5	140
48	6910212	994.7	150
48	6911708	994.9	160
48	6912853	995.1	170
48	6913639	995.3	180
48	6914662	995.5	190
48	6916160	995.7	200
48	6917253	995.9	210
48	6918385	996.1	210
48	6919645	996.376	120
48	6919645	996.376	130
48	6920332	996.5	140
48	6921714	996.7	150
48	6922805	996.9	160
48	6923944	997.1	170
48	6924732	997.3	180
48	6925758	997.5	190
48	6927255	997.7	200
48	6928349	997.9	210
48	6930743	998.376	110
48	6932088	998.653	120
48	6933632	998.93	130
48	6933632	998.93	140
48	6935194	999.208	150
48	6935194	999.208	160
48	6937414	999.581	170
48	6937414	999.581	180
48	6938284	999.7	190
48	6939662	999.9	200
48	6940796	1000.1	200
48	6940808	1000.1	210
48	6941909	1000.3	130
48	6943012	1000.5	140
48	6945349	1000.979	150
48	6945349	1000.979	160
48	6946070	1001.1	170
48	6947448	1001.3	180
48	6948240	1001.5	190
48	6949262	1001.7	200
48	6951980	1002.184	200
48	6951980	1002.184	210
48	6952767	1002.3	120
48	6954148	1002.5	130
48	6954934	1002.7	140
48	6955961	1002.9	150
48	6958554	1003.377	160
48	6960280	1003.753	170
48	6960280	1003.753	180
48	6960280	1003.753	190
48	6961557	1003.9	200
48	6963053	1004.1	200
48	6963065	1004.1	210
48	6964166	1004.3	140
48	6965263	1004.5	150
48	6966360	1004.7	160
48	6967146	1004.9	170
48	6968216	1005.1	180
48	6970520	1005.584	190
48	6970520	1005.584	200
48	6971249	1005.7	210
48	6972730	1005.9	220
48	6973805	1006.1	210
48	6975314	1006.3	120
48	6976409	1006.5	130
48	6977506	1006.7	140
48	6978595	1006.9	150
48	6979746	1007.1	160
48	6980837	1007.3	170
48	6981930	1007.5	180
48	6983027	1007.7	190
48	6983811	1007.9	200
48	6984872	1008.1	200
48	6984884	1008.1	210
48	6986385	1008.3	140
48	6987486	1008.5	150
48	6989678	1008.981	160
48	6989678	1008.981	170
48	6990227	1009.1	180
48	6991541	1009.3	190
48	6993041	1009.5	200
48	6994138	1009.7	210
48	6995232	1009.9	220
48	6996382	1010.1	210
48	6997483	1010.3	120
48	6998574	1010.5	130
48	6999671	1010.7	140
48	7000768	1010.9	150
48	7001909	1011.1	160
48	7002699	1011.3	170
48	7003609	1011.5	180
48	7004595	1011.7	190
48	7005369	1011.9	200
48	7006667	1012.1	200
48	7006679	1012.1	210
48	7008260	1012.3	130
48	7009292	1012.5	140
48	7011573	1012.977	150
48	7011573	1012.977	160
48	7012388	1013.1	170
48	7014167	1013.3	180
48	7015270	1013.5	190
48	7016365	1013.7	200
48	7017461	1013.9	210
48	7018296	1014.1	210
48	7019333	1014.3	120
48	7020829	1014.5	130
48	7021922	1014.7	140
48	7022400	1014.9	150
48	7023155	1015.1	160
48	7024688	1015.3	170
48	7026371	1015.5	180
48	7027472	1015.7	190
48	7028577	1015.9	200
48	7029709	1016.1	200
48	7029721	1016.1	210
48	7030818	1016.3	130
48	7031911	1016.5	140
48	7032381	1016.7	150
48	7033096	1016.9	160
48	7034368	1017.1	170
48	7035994	1017.3	180
48	7037487	1017.5	190
48	7038277	1017.7	200
48	7038989	1017.9	210
48	7040465	1018.1	220
48	7041981	1018.3	120
48	7043078	1018.5	130
48	7044167	1018.7	140
48	7045264	1018.9	150
48	7046405	1019.1	160
48	7047506	1019.3	170
48	7049402	1019.783	180
48	7049402	1019.783	190
48	7050133	1019.9	200
50	6495795	950.346	350
50	6499186	950.726	350
50	6503239	951.106	350
50	6512391	951.487	350
50	6516308	951.866	350
50	6518972	952.246	350
50	6522689	952.627	350
50	6526714	953.006	350
50	6530459	953.386	350
50	6534268	953.766	350
50	6537637	954.1	350
50	6538410	954.146	40
50	6546170	954.525	40
50	6558292	954.905	40
50	6568492	955.293	40
50	6576813	955.673	50
50	6582010	956.052	60
50	6582010	956.052	70
50	6586421	956.431	80
50	6590576	956.817	90
50	6593901	957.196	100
50	6597464	957.575	110
50	6601608	957.954	120
50	6602820	958.1	120
50	6605107	958.333	10
50	6605107	958.333	20
50	6609333	958.716	30
50	6612433	959.097	40
50	6612433	959.097	50
50	6612433	959.097	60
50	6612433	959.097	70
50	6612433	959.097	80
50	6612433	959.097	90
50	6612433	959.097	100
50	6612433	959.097	110
50	6612433	959.097	120
50	6612433	959.097	130
50	6612433	959.097	140
50	6612433	959.097	150
50	6612433	959.097	160
50	6612433	959.097	170
50	6612433	959.097	180
50	6612433	959.097	190
50	6620820	959.477	200
50	6620820	959.477	210
50	6620820	959.477	220
50	6620820	959.477	230
50	6620820	959.477	240
50	6625932	959.858	250
50	6625932	959.858	260
50	6625932	959.858	270
50	6625932	959.858	280
50	6625932	959.858	290
50	6625932	959.858	300
50	6631671	960.239	310
50	6631671	960.239	320
50	6631671	960.239	330
50	6631671	960.239	340
50	6631671	960.239	350
50	6631671	960.239	360
50	6631671	960.239	370
50	6631671	960.239	380
50	6631671	960.239	390
50	6631671	960.239	400
50	6631671	960.239	410
50	6631671	960.239	420
50	6631671	960.239	430
50	6631671	960.239	440
50	6631671	960.239	450
50	6631671	960.239	460
50	6631671	960.239	470
50	6631671	960.239	480
50	6631671	960.239	490
50	6631671	960.239	500
50	6641588	960.621	510
50	6645495	961.002	520
50	6645495	961.002	530
50	6645495	961.002	540
50	6645495	961.002	550
50	6645495	961.002	560
50	6650455	961.386	570
50	6650455	961.386	580
50	6650455	961.386	590
50	6650455	961.386	600
50	6650455	961.386	610
50	6655826	961.766	620
50	6655826	961.766	630
50	6658922	962.1	630
50	6659843	962.149	10
50	6659843	962.149	20
50	6659843	962.149	30
50	6659843	962.149	40
50	6659843	962.149	50
50	6659843	962.149	60
50	6659843	962.149	70
50	6659843	962.149	80
50	6659843	962.149	90
50	6659843	962.149	100
50	6659843	962.149	110
50	6659843	962.149	120
50	6659843	962.149	130
50	6659843	962.149	140
50	6659843	962.149	150
50	6665473	962.3	160
50	6667812	962.5	170
50	6669633	962.7	180
50	6671416	962.9	190
50	6673253	963.1	200
50	6675040	963.3	210
50	6676622	963.5	220
50	6678612	963.7	230
50	6680081	963.9	240
50	6681652	964.1	250
50	6683693	964.3	260
50	6685079	964.5	270
50	6687344	964.7	280
50	6689417	964.9	290
50	6691036	965.1	300
50	6693071	965.3	310
50	6694966	965.5	320
50	6696429	965.7	330
50	6698497	965.9	340
50	6700374	966.1	340
50	6700389	966.1	350
50	6702196	966.3	120
50	6703983	966.5	130
50	6705760	966.7	140
50	6707553	966.9	150
50	6709386	967.1	160
50	6710870	967.3	170
50	6715557	967.88	180
50	6718912	968.262	190
50	6718912	968.262	200
50	6718912	968.262	210
50	6719410	968.3	220
50	6722086	968.5	170
50	6723590	968.7	180
50	6725310	968.9	190
50	6730374	969.479	200
50	6733276	969.863	180
50	6733276	969.863	190
50	6735995	970.1	190
50	6737266	970.254	100
50	6737266	970.254	110
50	6737266	970.254	120
50	6737891	970.3	130
50	6740288	970.5	140
50	6741767	970.7	150
50	6746753	971.279	160
50	6746753	971.279	170
50	6747157	971.3	180
50	6749349	971.5	190
50	6751142	971.7	200
50	6752901	971.9	210
50	6754386	972.1	220
50	6755840	972.3	230
50	6757284	972.5	170
50	6758713	972.7	180
50	6759839	972.9	190
50	6763579	973.484	180
50	6763579	973.484	190
50	6763886	973.5	200
50	6765798	973.7	210
50	6767526	973.9	220
50	6768702	974.1	220
50	6768716	974.1	230
50	6770445	974.3	120
50	6771632	974.5	130
50	6772692	974.7	140
50	6774578	974.9	150
50	6776044	975.1	160
50	6777541	975.3	170
50	6779270	975.5	180
50	6782893	976.08	190
50	6782893	976.08	200
50	6783250	976.1	210
50	6785086	976.3	220
50	6788469	976.88	170
50	6788469	976.88	180
50	6788810	976.9	190
50	6793136	977.479	170
50	6793136	977.479	180
50	6793496	977.5	190
50	6795351	977.7	200
50	6796790	977.9	210
50	6798272	978.1	210
50	6798286	978.1	220
50	6799434	978.3	120
50	6803354	978.879	130
50	6803354	978.879	140
50	6803713	978.9	150
50	6805604	979.1	160
50	6806741	979.3	170
50	6807867	979.5	180
50	6809355	979.7	190
50	6811090	979.9	200
50	6812519	980.1	210
50	6814366	980.3	220
50	6815800	980.5	170
50	6819431	981.08	180
50	6819431	981.08	190
50	6819793	981.1	200
50	6821336	981.3	210
50	6822717	981.5	190
50	6824244	981.7	200
50	6825741	981.9	210
50	6827510	982.1	210
50	6827524	982.1	220
50	6828665	982.3	120
50	6830351	982.5	130
50	6831873	982.7	140
50	6833307	982.9	150
50	6834795	983.1	160
50	6836245	983.3	170
50	6837675	983.5	180
50	6839119	983.7	190
50	6840555	983.9	200
50	6842038	984.1	210
50	6845621	984.679	160
50	6845621	984.679	170
50	6845988	984.7	180
50	6847513	984.9	190
50	6849048	985.1	200
50	6850459	985.3	210
50	6851968	985.5	190
50	6853687	985.7	200
50	6855130	985.9	210
50	6856302	986.1	210
50	6856316	986.1	220
50	6858015	986.3	120
50	6859232	986.5	130
50	6860608	986.7	140
50	6862452	986.9	150
50	6863942	987.1	160
50	6865374	987.3	170
50	6868685	987.88	180
50	6868685	987.88	190
50	6869002	987.9	200
50	6870822	988.1	210
50	6872669	988.3	220
50	6874127	988.5	170
50	6877763	989.081	180
50	6877763	989.081	190
50	6878122	989.1	200
50	6879970	989.3	210
50	6881421	989.5	190
50	6883831	990.1	190
50	6887112	990.809	90
50	6887112	990.809	100
50	6887112	990.809	110
50	6887112	990.809	120
50	6887112	990.809	130
50	6887112	990.809	140
50	6888523	990.9	150
50	6890675	991.1	160
50	6891784	991.3	170
50	6892877	991.5	180
50	6893970	991.7	190
50	6894754	991.9	200
50	6895511	992.1	210
50	6897061	992.3	220
50	6898449	992.5	150
50	6899534	992.7	160
50	6900635	992.9	170
50	6901776	993.1	180
50	6902869	993.3	190
50	6903968	993.5	200
50	6905065	993.7	210
50	6906157	993.9	220
50	6907290	994.1	220
50	6907303	994.1	230
50	6909917	994.683	130
50	6909917	994.683	140
50	6910213	994.7	150
50	6911709	994.9	160
50	6914407	995.498	170
50	6914407	995.498	180
50	6914663	995.5	190
50	6916161	995.7	200
50	6917254	995.9	210
50	6918398	996.1	220
50	6919181	996.3	230
50	6920333	996.5	140
50	6921715	996.7	150
50	6922806	996.9	160
50	6923945	997.1	170
50	6924733	997.3	180
50	6925759	997.5	190
50	6927256	997.7	200
50	6928350	997.9	210
50	6929485	998.1	210
50	6929498	998.1	220
50	6930283	998.3	120
50	6931256	998.5	130
50	6932326	998.7	140
50	6933312	998.9	150
50	6936417	999.482	160
50	6936417	999.482	170
50	6936698	999.5	180
50	6938285	999.7	190
50	6939663	999.9	200
50	6940809	1000.1	210
50	6941910	1000.3	220
50	6943013	1000.5	140
50	6944100	1000.7	150
50	6944885	1000.9	160
50	6946071	1001.1	170
50	6947449	1001.3	180
50	6948241	1001.5	190
50	6949263	1001.7	200
50	6950452	1001.9	210
50	6951202	1002.1	210
50	6951215	1002.1	220
50	6952768	1002.3	120
50	6955653	1002.882	130
50	6955653	1002.882	140
50	6955962	1002.9	150
50	6957504	1003.1	160
50	6958279	1003.3	170
50	6958938	1003.5	180
50	6959791	1003.7	190
50	6961558	1003.9	200
50	6963066	1004.1	210
50	6964167	1004.3	220
50	6965264	1004.5	150
50	6966361	1004.7	160
50	6967147	1004.9	170
50	6968217	1005.1	180
50	6970957	1005.68	190
50	6970957	1005.68	200
50	6971250	1005.7	210
50	6972731	1005.9	220
50	6973793	1006.1	220
50	6973806	1006.1	230
50	6975315	1006.3	120
50	6976410	1006.5	130
50	6977507	1006.7	140
50	6978596	1006.9	150
50	6979747	1007.1	160
50	6980838	1007.3	170
50	6981931	1007.5	180
50	6983028	1007.7	190
50	6983812	1007.9	200
50	6984885	1008.1	210
50	6986386	1008.3	220
50	6987487	1008.5	150
50	6988578	1008.7	160
50	6991223	1009.28	170
50	6991223	1009.28	180
50	6991542	1009.3	190
50	6993042	1009.5	200
50	6994139	1009.7	210
50	6995233	1009.9	220
50	6996370	1010.1	220
50	6996383	1010.1	230
50	6997484	1010.3	120
50	6998575	1010.5	130
50	6999672	1010.7	140
50	7000769	1010.9	150
50	7001910	1011.1	160
50	7002700	1011.3	170
50	7003610	1011.5	180
50	7004596	1011.7	190
50	7005370	1011.9	200
50	7008977	1012.48	120
50	7008977	1012.48	130
50	7009293	1012.5	140
50	7012118	1013.086	150
50	7012118	1013.086	160
50	7012389	1013.1	170
50	7014168	1013.3	180
50	7015271	1013.5	190
50	7016366	1013.7	200
50	7018284	1014.1	200
50	7019026	1014.281	100
50	7019026	1014.281	110
50	7019334	1014.3	120
50	7020830	1014.5	130
50	7024282	1015.29	140
50	7024282	1015.29	150
50	7024282	1015.29	160
50	7024689	1015.3	170
50	7026372	1015.5	180
50	7027473	1015.7	190
50	7028578	1015.9	200
50	7029722	1016.1	210
50	7030819	1016.3	220
50	7033978	1017.087	140
50	7033978	1017.087	150
50	7033978	1017.087	160
50	7034369	1017.1	170
50	7035995	1017.3	180
50	7037488	1017.5	190
50	7040141	1018.08	200
50	7040141	1018.08	210
50	7040453	1018.1	210
50	7040466	1018.1	220
50	7041982	1018.3	120
50	7043079	1018.5	130
50	7044168	1018.7	140
50	7045265	1018.9	150
50	7046406	1019.1	160
50	7047507	1019.3	170
50	7049850	1019.882	180
50	7049850	1019.882	190

