version 2
run FastSMR-0-20181114-00:59:08-2136
attr configname FastSMR
attr datetime 20181114-00:59:08
attr experiment FastSMR
attr inifile omnetpp.ini
attr iterationvars $GCFlag=true
attr iterationvarsf GCFlag=true-
attr measurement $GCFlag=true
attr network abstract.FastSMRModel
attr processid 2136
attr repetition 0
attr replication #0
attr resultdir results
attr runnumber 0
attr seedset 0
itervar GCFlag true
param FastSMRModel.client_num 10
param FastSMRModel.logical_computer "\"client[0]\""
param **.globalParameters.max_distance 20000000m
param **.globalParameters.fix_latency 100ms
param **.globalParameters.latency_gen_mode 0
param **.globalStatistics.cool_down 10s
param **.underlayConfigurator.lcType "\"abstract.LogicComputer\""
param **.underlayConfigurator.lcName "\"logicComputer\""
param **.underlayConfigurator.nodeType "\"hosts.Node\""
param **.underlayConfigurator.nodeName "\"node\""
param **.underlayConfigurator.clientType "\"hosts.Client\""
param **.underlayConfigurator.clientName "\"client\""
param **.client[*].ctrl.initJoinTime 3000ms
param **.client[*].ctrl.loadCycle 500ms
param **.client[*].ctrl.discoveryCycle 1000ms
param **.client[*].ctrl.deviate false
param **.node[*].IPInterface "\"IPAddress\""
param **.node[*].HBcycle 1000ms
param **.node[*].ctrl.roundCycle 200ms
param **.node[*].ctrl.cycleStart 4000ms
param **.node[*].ctrl.GCCycle 5000ms
param **.node[*].ctrl.GC true
param **.rendezvous.ctrl.cycle 1000ms
param **.rendezvous.ctrl.starttime 5000ms
param **.rendezvous.replicaNumPolicyModule "\"replication\""
param **.rendezvous.replication.threshold 3
param **.rendezvous.replication.max_replica 5
param **.clock.err_mean 74ms
param **.clock.err_std 175ms
param **.pktLossRate 0.01
param **.Copt 200000000mps
param **.BW 1.04858e6bps
param **.MTU 12144b
param **.jitter_mu 1
param **.jitter_sigma 0.5
param **.Dmin 50ms
param **.jitter 50ms
param **.churnGeneratorModule "\"churnGenerator\""
param **.churnGenerator.stable_fraction 0.2
param **.churnGenerator.stable_mean 9000000ms
param **.churnGenerator.sessionLenShape 0.38
param **.churnGenerator.sessionLenScale 42.4
param **.churnGenerator.sessionLenMin 10s
param **.churnGenerator.sessionLength 30min
param **.churnGenerator.scan_cycle 100ms
param **.churnGenerator.life_span_min 10s
param **.churnGenerator.life_span_max 1000s
param **.coordinator.locXMax 750
param **.coordinator.locYMax 550
param **.coordinator.locXMin 200
param **.coordinator.locYMin 50
param **.coordinator.LCXMax 1050
param **.coordinator.LCYMax 550
param **.coordinator.LCXMin 850
param **.coordinator.LCYMin 50
param **.coordinator.percept_radius 1000

vector 0 FastSMRModel.logicComputer[0].node[0] QdLengthVector:vector ETV
attr source QdLength
attr title "Qd Length, vector"
vector 1 FastSMRModel.logicComputer[0].node[1] QdLengthVector:vector ETV
attr source QdLength
attr title "Qd Length, vector"
vector 2 FastSMRModel.logicComputer[0].node[2] QdLengthVector:vector ETV
attr source QdLength
attr title "Qd Length, vector"
vector 3 FastSMRModel.logicComputer[0].node[3] QdLengthVector:vector ETV
attr source QdLength
attr title "Qd Length, vector"
vector 4 FastSMRModel.logicComputer[0].node[4] QdLengthVector:vector ETV
attr source QdLength
attr title "Qd Length, vector"
0	5704	10.1	30
0	7563	10.3	40
0	9346	10.5	40
0	9361	10.5	50
0	11206	10.7	60
0	15616	11.197	30
0	15616	11.197	40
0	16469	11.3	50
0	18426	11.5	60
0	19885	11.7	70
0	21843	11.9	80
0	23843	12.1	90
0	25628	12.3	100
0	26873	12.5	110
0	29134	12.7	120
0	31031	12.9	130
0	32858	13.1	140
0	34327	13.3	150
0	36285	13.5	160
0	38231	13.7	170
0	40022	13.9	180
0	45458	14.548	190
0	45458	14.548	200
0	47995	14.849	210
0	47995	14.849	220
0	48522	14.9	230
0	50700	15.1	240
0	53898	15.5	240
0	55280	15.6	250
0	55280	15.6	260
0	56230	15.7	270
0	58195	15.9	40
0	60036	16.1	50
0	61827	16.3	60
0	63608	16.5	70
0	67839	16.993	80
0	67839	16.993	90
0	68813	17.1	100
0	70514	17.3	110
0	75208	17.794	120
0	77373	18.088	130
0	77373	18.088	140
0	77702	18.1	150
0	79905	18.3	160
0	81690	18.5	170
0	83469	18.7	180
0	85254	18.9	190
0	86517	19.1	200
0	88600	19.3	210
0	93661	19.901	220
0	93661	19.901	230
0	96160	20.198	240
0	96160	20.198	250
0	96887	20.3	260
0	98872	20.5	260
0	98887	20.5	270
0	101642	20.7	270
0	103479	20.9	30
0	105312	21.1	40
0	107085	21.3	50
0	108629	21.5	60
0	110271	21.7	70
0	112104	21.9	80
0	114058	22.1	90
0	116136	22.3	100
0	117381	22.5	110
0	119642	22.7	120
0	121273	22.9	130
0	122878	23.1	140
0	125139	23.3	150
0	126743	23.5	160
0	128729	23.7	170
0	130598	23.9	180
0	132423	24.1	190
0	133601	24.3	200
0	135611	24.5	210
0	140390	24.993	220
0	140390	24.993	230
0	141310	25.1	240
0	143257	25.3	250
0	144745	25.5	250
0	144760	25.5	260
0	146870	25.7	270
0	148459	25.9	40
0	150350	26.1	50
0	152375	26.3	60
0	156473	26.797	70
0	156473	26.797	80
0	157242	26.9	90
0	159391	27.1	100
0	160882	27.3	110
0	163105	27.5	120
0	165034	27.7	130
0	169307	28.194	140
0	169307	28.194	150
0	170219	28.3	160
0	172252	28.5	170
0	174045	28.7	180
0	178227	29.193	190
0	178227	29.193	200
0	178998	29.3	210
0	180887	29.5	220
0	186572	30.145	230
0	186572	30.145	240
0	186572	30.145	250
0	188064	30.3	260
0	190296	30.5	260
0	190311	30.5	270
0	192220	30.7	270
0	194011	30.9	30
0	195856	31.1	40
0	197635	31.3	50
0	199422	31.5	60
0	201205	31.7	70
0	202680	31.9	80
0	204674	32.1	90
0	206632	32.3	100
0	208421	32.5	110
0	210204	32.7	120
0	211995	32.9	130
0	213828	33.1	140
0	215615	33.3	150
0	217111	33.5	160
0	219163	33.7	170
0	220739	33.9	180
0	222743	34.1	190
0	224632	34.3	200
0	226149	34.5	210
0	228000	34.7	220
0	229765	34.9	230
0	231656	35.1	240
0	233695	35.3	250
0	235470	35.5	250
0	235485	35.5	260
0	237330	35.7	270
0	239131	35.9	30
0	240956	36.1	40
0	242751	36.3	50
0	244272	36.5	60
0	245512	36.7	70
0	250792	37.194	80
0	250792	37.194	90
0	251666	37.3	100
0	253615	37.5	110
0	255398	37.7	120
0	257189	37.9	130
0	259028	38.1	140
0	260807	38.3	150
0	262600	38.5	160
0	264065	38.7	170
0	266051	38.9	180
0	268007	39.1	190
0	269253	39.3	200
0	271006	39.5	210
0	273131	39.7	220
0	275016	39.9	230
0	277085	40.1	240
0	278874	40.3	250
0	280657	40.5	250
0	280672	40.5	260
0	282507	40.7	270
0	284054	40.9	30
0	288623	41.402	40
0	288623	41.402	50
0	289362	41.5	60
0	291370	41.7	70
0	293395	41.9	80
0	295238	42.1	90
0	297023	42.3	100
0	298810	42.5	110
0	300597	42.7	120
0	302380	42.9	130
0	303893	43.1	140
0	305620	43.3	150
0	310433	43.797	160
0	310433	43.797	170
0	311289	43.9	180
0	313282	44.1	190
0	315059	44.3	200
0	316854	44.5	210
0	318643	44.7	220
0	320434	44.9	230
0	322267	45.1	240
0	324046	45.3	250
0	325829	45.5	250
0	325844	45.5	260
0	327687	45.7	270
0	329237	45.9	30
0	330997	46.1	40
0	333054	46.3	50
0	334937	46.5	60
0	336724	46.7	70
0	338513	46.9	80
0	342916	47.397	90
0	342916	47.397	100
0	343774	47.5	110
0	345719	47.7	120
0	347508	47.9	130
0	349347	48.1	140
0	351120	48.3	150
0	355471	48.793	160
0	355471	48.793	170
0	356351	48.9	180
0	358344	49.1	190
0	360125	49.3	200
0	361906	49.5	210
0	363697	49.7	220
0	365237	49.9	230
0	367239	50.1	240
0	369124	50.3	250
0	370901	50.5	250
0	370916	50.5	260
0	375340	50.995	20
0	377493	51.289	30
0	377493	51.289	40
0	380798	51.595	50
0	380798	51.595	60
0	384209	51.994	70
0	384209	51.994	80
0	385081	52.1	90
0	387221	52.3	100
0	388839	52.5	110
0	390815	52.7	120
0	392356	52.9	130
0	394378	53.1	140
0	396308	53.3	150
0	397561	53.5	160
0	399834	53.7	170
0	401719	53.9	180
0	403548	54.1	190
0	405327	54.3	200
0	407122	54.5	210
0	408897	54.7	220
0	410688	54.9	230
0	412521	55.1	240
0	414052	55.3	250
0	415897	55.5	250
0	415912	55.5	260
0	417993	55.7	270
0	419782	55.9	30
0	424183	56.394	40
0	424183	56.394	50
0	425051	56.5	60
0	426697	56.7	70
0	428505	56.9	80
0	430188	57.1	90
0	435058	57.598	100
0	435058	57.598	110
0	435914	57.7	120
0	436992	57.9	130
0	439484	58.1	140
0	441526	58.3	150
0	442748	58.5	160
0	444574	58.7	170
0	446863	58.9	180
0	448776	59.1	190
0	450563	59.3	200
0	452344	59.5	210
0	454127	59.7	220
0	455621	59.9	230
0	457709	60.1	240
0	459301	60.3	250
0	461253	60.5	250
0	461268	60.5	260
0	463219	60.7	270
0	464441	60.9	30
0	466141	61.1	40
0	468286	61.3	50
0	470440	61.5	60
0	472259	61.7	70
0	474050	61.9	80
0	475885	62.1	90
0	477672	62.3	100
0	479449	62.5	110
0	480982	62.7	120
0	482504	62.9	130
0	484484	63.1	140
0	486648	63.3	150
0	488257	63.5	160
0	489969	63.7	170
0	491333	63.9	180
0	493573	64.1	190
0	495758	64.3	200
0	497643	64.5	210
0	499181	64.7	220
0	500845	64.9	230
0	502650	65.1	240
0	504821	65.3	250
0	506147	65.5	250
0	506162	65.5	260
0	507930	65.7	270
0	510145	65.9	40
0	512211	66.1	50
0	514000	66.3	60
0	515785	66.5	70
0	517578	66.7	80
0	519359	66.9	90
0	520924	67.1	100
0	522460	67.3	110
0	524455	67.5	120
0	526627	67.7	130
0	528420	67.9	140
0	530241	68.1	150
0	531710	68.3	160
0	533704	68.5	170
0	535614	68.7	180
0	537407	68.9	190
0	538981	69.1	200
0	540975	69.3	210
0	542830	69.5	220
0	544619	69.7	230
0	546402	69.9	240
0	548243	70.1	250
0	550028	70.3	260
0	551799	70.5	260
0	551814	70.5	270
0	553414	70.7	280
0	555382	70.9	30
0	557307	71.1	40
0	558845	71.3	50
0	563490	71.8	60
0	563490	71.8	70
0	564327	71.9	80
0	566318	72.1	90
0	567536	72.3	100
0	572287	72.796	110
0	572287	72.796	120
0	573084	72.9	130
0	575356	73.1	140
0	577165	73.3	150
0	578671	73.5	160
0	580737	73.7	170
0	582232	73.9	180
0	583997	74.1	190
0	585543	74.3	200
0	587282	74.5	210
0	589300	74.7	220
0	591329	74.9	230
0	593363	75.1	240
0	595281	75.3	250
0	596809	75.5	250
0	596824	75.5	260
0	598862	75.7	270
0	600739	75.9	40
0	602576	76.1	50
0	604106	76.3	60
0	606106	76.5	70
0	610363	76.996	80
0	610363	76.996	90
0	611167	77.1	100
0	617013	77.744	110
0	617013	77.744	120
0	617013	77.744	130
0	618586	77.9	140
0	620395	78.1	150
0	622246	78.3	160
0	624273	78.5	170
0	626062	78.7	180
0	627841	78.9	190
0	629377	79.1	200
0	633571	79.595	210
0	633571	79.595	220
0	634563	79.7	230
0	636812	79.9	240
0	638235	80.1	250
0	639818	80.3	260
0	641766	80.5	260
0	641781	80.5	270
0	643476	80.7	280
0	646021	80.9	40
0	647930	81.1	50
0	649727	81.3	60
0	653927	81.798	70
0	653927	81.798	80
0	654678	81.9	90
0	656729	82.1	100
0	661169	82.597	110
0	661169	82.597	120
0	661934	82.7	130
0	663939	82.9	140
0	666022	83.1	150
0	667799	83.3	160
0	671907	83.798	170
0	671907	83.798	180
0	672773	83.9	190
0	677640	84.396	200
0	677640	84.396	210
0	678501	84.5	220
0	680450	84.7	230
0	681946	84.9	240
0	686486	85.406	250
0	686486	85.406	260
0	687216	85.5	260
0	687231	85.5	270
0	689374	85.7	270
0	691341	85.9	40
0	692891	86.1	50
0	694961	86.3	60
0	696454	86.5	70
0	698436	86.7	80
0	700356	86.9	90
0	704756	87.393	100
0	704756	87.393	110
0	705641	87.5	120
0	707584	87.7	130
0	709369	87.9	140
0	711216	88.1	150
0	713001	88.3	160
0	714782	88.5	170
0	716313	88.7	180
0	718152	88.9	190
0	719915	89.1	200
0	724450	89.599	210
0	724450	89.599	220
0	725204	89.7	230
0	726921	89.9	240
0	731858	90.401	250
0	731858	90.401	260
0	732769	90.5	260
0	732784	90.5	270
0	734484	90.7	280
0	736486	90.9	30
0	738450	91.1	40
0	740233	91.3	50
0	741773	91.5	60
0	743489	91.7	70
0	745418	91.9	80
0	747481	92.1	90
0	749280	92.3	100
0	751061	92.5	110
0	752856	92.7	120
0	754643	92.9	130
0	756474	93.1	140
0	758261	93.3	150
0	759797	93.5	160
0	761740	93.7	170
0	763339	93.9	180
0	767545	94.396	190
0	767545	94.396	200
0	768499	94.5	210
0	770832	94.7	220
0	772681	94.9	230
0	776436	95.394	240
0	776436	95.394	250
0	777066	95.5	250
0	777082	95.5	260
0	779749	95.7	270
0	781799	95.9	40
0	786202	96.396	50
0	786202	96.396	60
0	789159	96.798	70
0	789159	96.798	80
0	789786	96.9	90
0	792191	97.1	100
0	794227	97.3	110
0	796311	97.5	120
0	798102	97.7	130
0	799885	97.9	140
0	801714	98.1	150
0	803499	98.3	160
0	805288	98.5	170
0	806753	98.7	180
0	808452	98.9	190
0	810702	99.1	200
0	812216	99.3	210
0	813735	99.5	220
0	815964	99.7	230
0	817947	99.9	240
0	819784	100.1	250
0	821567	100.3	260
0	823344	100.5	260
0	823359	100.5	270
0	824913	100.7	280
0	826957	100.9	30
0	828852	101.1	40
0	830637	101.3	50
0	832123	101.5	60
0	834179	101.7	70
0	836008	101.9	80
0	837853	102.1	90
0	839644	102.3	100
0	841425	102.5	110
0	843210	102.7	120
0	844995	102.9	130
0	846824	103.1	140
0	848299	103.3	150
0	850285	103.5	160
0	852207	103.7	170
0	853990	103.9	180
0	855576	104.1	190
0	857534	104.3	200
0	859411	104.5	210
0	861202	104.7	220
0	862989	104.9	230
0	864535	105.1	240
0	866577	105.3	250
0	868402	105.5	250
0	868417	105.5	260
0	870270	105.7	270
0	872067	105.9	30
0	873898	106.1	40
0	875683	106.3	50
0	877474	106.5	60
0	878962	106.7	70
0	880994	106.9	80
0	882895	107.1	90
0	884676	107.3	100
0	886473	107.5	110
0	888258	107.7	120
0	890041	107.9	130
0	891870	108.1	140
0	893665	108.3	150
0	895446	108.5	160
0	896660	108.7	170
0	898825	108.9	180
0	903262	109.397	190
0	903262	109.397	200
0	906843	109.797	210
0	906843	109.797	220
0	907626	109.9	230
0	909590	110.1	240
0	911578	110.3	250
0	913520	110.5	250
0	913535	110.5	260
0	915378	110.7	270
0	919788	111.196	30
0	919788	111.196	40
0	920645	111.3	50
0	922297	111.5	60
0	924069	111.7	70
0	925984	111.9	80
0	928071	112.1	90
0	929852	112.3	100
0	931643	112.5	110
0	933114	112.7	120
0	935076	112.9	130
0	937060	113.1	140
0	938849	113.3	150
0	940638	113.5	160
0	942421	113.7	170
0	946616	114.195	180
0	946616	114.195	190
0	947421	114.3	200
0	949545	114.5	210
0	951174	114.7	220
0	953015	114.9	230
0	955088	115.1	240
0	956875	115.3	250
0	958660	115.5	250
0	958675	115.5	260
0	960532	115.7	270
0	962319	115.9	30
0	963892	116.1	40
0	969134	116.749	50
0	969134	116.749	60
0	969134	116.749	70
0	971062	116.9	80
0	973241	117.1	90
0	975022	117.3	100
0	976244	117.5	110
0	978087	117.7	120
0	980181	117.9	130
0	982219	118.1	140
0	984072	118.3	150
0	985851	118.5	160
0	990017	118.996	170
0	990017	118.996	180
0	990869	119.1	190
0	993027	119.3	200
0	994874	119.5	210
0	996655	119.7	220
0	998450	119.9	230
0	1000273	120.1	240
0	1002064	120.3	250
0	1003585	120.5	250
0	1003600	120.5	260
0	1005511	120.7	270
0	1007540	120.9	40
0	1009377	121.1	50
0	1011164	121.3	60
0	1012695	121.5	70
0	1014502	121.7	80
0	1016563	121.9	90
0	1018400	122.1	100
0	1019892	122.3	110
0	1021638	122.5	120
0	1023624	122.7	130
0	1025578	122.9	140
0	1027101	123.1	150
0	1029043	123.3	160
0	1030706	123.5	170
0	1032742	123.7	180
0	1034599	123.9	190
0	1036430	124.1	200
0	1038209	124.3	210
0	1039996	124.5	220
0	1041783	124.7	230
0	1043562	124.9	240
0	1045405	125.1	250
0	1048357	125.5	250
0	1049473	125.594	260
0	1051625	125.896	20
0	1051625	125.896	30
0	1055122	126.203	40
0	1055122	126.203	50
0	1056102	126.3	60
0	1057910	126.5	70
0	1059980	126.7	80
0	1061532	126.9	90
0	1063050	127.1	100
0	1065187	127.3	110
0	1067240	127.5	120
0	1068701	127.7	130
0	1070396	127.9	140
0	1072651	128.1	150
0	1074466	128.3	160
0	1076249	128.5	170
0	1078040	128.7	180
0	1082634	129.344	190
0	1085229	129.637	200
0	1085229	129.637	210
0	1085229	129.637	220
0	1086067	129.7	230
0	1088783	129.9	240
0	1090444	130.1	250
0	1092394	130.3	260
0	1094347	130.5	260
0	1094362	130.5	270
0	1096211	130.7	270
0	1097998	130.9	30
0	1099829	131.1	40
0	1101113	131.3	50
0	1102998	131.5	60
0	1104911	131.7	70
0	1106915	131.9	80
0	1108865	132.1	90
0	1113770	132.899	100
0	1113770	132.899	110
0	1116472	133.193	120
0	1119543	133.47	130
0	1119543	133.47	140
0	1119543	133.47	150
0	1120372	133.5	160
0	1123157	133.7	170
0	1125006	133.9	180
0	1127075	134.1	190
0	1128874	134.3	200
0	1130667	134.5	210
0	1132442	134.7	220
0	1133975	134.9	230
0	1135866	135.1	240
0	1137575	135.3	250
0	1139541	135.5	250
0	1139556	135.5	260
0	1141554	135.7	270
0	1143027	135.9	30
0	1145061	136.1	40
0	1146981	136.3	50
0	1148776	136.5	60
0	1150557	136.7	70
0	1155114	137.352	80
0	1158012	137.645	90
0	1158012	137.645	100
0	1161413	137.94	110
0	1161413	137.94	120
0	1161413	137.94	130
0	1162790	138.1	140
0	1165028	138.3	150
0	1166883	138.5	160
0	1168656	138.7	170
0	1170193	138.9	180
0	1172078	139.1	190
0	1173806	139.3	200
0	1175572	139.5	210
0	1177369	139.7	220
0	1179288	139.9	230
0	1181125	140.1	240
0	1182684	140.3	250
0	1184991	140.5	250
0	1187657	140.793	10
0	1187657	140.793	20
0	1188526	140.9	30
0	1190267	141.1	40
0	1192114	141.3	50
0	1194145	141.5	60
0	1198487	141.994	70
0	1198487	141.994	80
0	1199406	142.1	90
0	1201100	142.3	100
0	1203092	142.5	110
0	1204945	142.7	120
0	1206742	142.9	130
0	1208559	143.1	140
0	1210352	143.3	150
0	1211825	143.5	160
0	1213781	143.7	170
0	1215731	143.9	180
0	1220111	144.394	190
0	1220111	144.394	200
0	1223406	144.8	210
0	1223406	144.8	220
0	1224182	144.9	230
0	1226470	145.1	240
0	1228402	145.3	250
0	1230171	145.5	250
0	1230186	145.5	260
0	1234584	145.998	20
0	1234584	145.998	30
0	1235569	146.1	40
0	1237519	146.3	50
0	1239309	146.5	60
0	1241100	146.7	70
0	1242875	146.9	80
0	1244714	147.1	90
0	1246237	147.3	100
0	1248090	147.5	110
0	1250117	147.7	120
0	1251906	147.9	130
0	1256026	148.4	140
0	1256026	148.4	150
0	1256823	148.5	160
0	1258760	148.7	170
0	1260660	148.9	180
0	1262807	149.1	190
0	1264601	149.3	200
0	1266388	149.5	210
0	1270441	149.994	220
0	1270441	149.994	230
0	1274163	150.393	240
0	1274163	150.393	250
0	1274937	150.5	250
0	1274952	150.5	260
0	1277128	150.7	270
0	1279086	150.9	40
0	1280921	151.1	50
0	1282704	151.3	60
0	1284489	151.5	70
0	1286026	151.7	80
0	1287869	151.9	90
0	1292507	152.395	100
0	1292507	152.395	110
0	1293370	152.5	120
0	1295319	152.7	130
0	1297110	152.9	140
0	1298925	153.1	150
0	1303183	153.593	160
0	1303183	153.593	170
0	1304104	153.7	180
0	1306115	153.9	190
0	1307693	154.1	200
0	1309655	154.3	210
0	1311249	154.5	220
0	1313297	154.7	230
0	1317200	155.196	240
0	1317200	155.196	250
0	1317997	155.3	260
0	1320063	155.5	260
0	1320078	155.5	270
0	1322487	155.7	270
0	1324284	155.9	30
0	1326115	156.1	40
0	1327289	156.3	50
0	1329514	156.5	60
0	1331215	156.7	70
0	1333255	156.9	80
0	1335146	157.1	90
0	1336640	157.3	100
0	1338386	157.5	110
0	1340370	157.7	120
0	1342334	157.9	130
0	1344167	158.1	140
0	1345942	158.3	150
0	1347164	158.5	160
0	1349339	158.7	170
0	1351046	158.9	180
0	1352887	159.1	190
0	1354653	159.3	200
0	1356588	159.5	210
0	1358320	159.7	220
0	1362928	160.197	230
0	1362928	160.197	240
0	1363806	160.3	250
0	1365849	160.5	250
0	1365864	160.5	260
0	1367713	160.7	270
0	1369502	160.9	30
0	1373893	161.394	40
0	1373893	161.394	50
0	1374761	161.5	60
0	1376409	161.7	70
0	1378167	161.9	80
0	1380233	162.1	90
0	1382145	162.3	100
0	1383940	162.5	110
0	1388205	162.997	120
0	1388205	162.997	130
0	1391684	163.405	140
0	1391684	163.405	150
0	1395284	163.796	160
0	1395284	163.796	170
0	1396172	163.9	180
0	1398368	164.1	190
0	1400247	164.3	200
0	1402040	164.5	210
0	1403821	164.7	220
0	1405608	164.9	230
0	1407192	165.1	240
0	1409172	165.3	250
0	1410736	165.5	250
0	1410751	165.5	260
0	1412863	165.7	270
0	1414700	165.9	40
0	1416531	166.1	50
0	1418324	166.3	60
0	1420107	166.5	70
0	1421315	166.7	80
0	1423160	166.9	90
0	1425551	167.1	100
0	1427344	167.3	110
0	1429125	167.5	120
0	1430918	167.7	130
0	1432695	167.9	140
0	1434286	168.1	150
0	1436243	168.3	160
0	1438116	168.5	170
0	1439620	168.7	180
0	1441393	168.9	190
0	1443188	169.1	200
0	1444726	169.3	210
0	1449639	169.796	220
0	1449639	169.796	230
0	1450452	169.9	240
0	1452612	170.1	250
0	1454501	170.3	260
0	1455987	170.5	260
0	1456002	170.5	270
0	1458094	170.7	270
0	1459953	170.9	40
0	1461782	171.1	50
0	1465915	171.595	60
0	1465915	171.595	70
0	1466708	171.7	80
0	1468944	171.9	90
0	1470543	172.1	100
0	1472069	172.3	110
0	1474298	172.5	120
0	1476220	172.7	130
0	1477720	172.9	140
0	1479826	173.1	150
0	1481396	173.3	160
0	1483372	173.5	170
0	1485233	173.7	180
0	1486451	173.9	190
0	1491400	174.395	200
0	1491400	174.395	210
0	1495687	174.947	220
0	1495687	174.947	230
0	1495687	174.947	240
0	1497617	175.1	250
0	1499797	175.3	260
0	1501325	175.5	260
0	1501340	175.5	270
0	1503374	175.7	270
0	1507848	176.193	40
0	1507848	176.193	50
0	1508727	176.3	60
0	1510676	176.5	70
0	1512463	176.7	80
0	1513959	176.9	90
0	1516067	177.1	100
0	1517884	177.3	110
0	1519673	177.5	120
0	1523612	177.996	130
0	1523612	177.996	140
0	1524410	178.1	150
0	1526360	178.3	160
0	1528719	178.5	170
0	1530546	178.7	180
0	1532341	178.9	190
0	1534164	179.1	200
0	1535947	179.3	210
0	1537414	179.5	220
0	1539390	179.7	230
0	1543873	180.196	240
0	1543873	180.196	250
0	1544812	180.3	260
0	1546214	180.5	260
0	1546229	180.5	270
0	1548466	180.7	280
0	1550472	180.9	40
0	1552008	181.1	50
0	1554068	181.3	60
0	1555887	181.5	70
0	1557366	181.7	80
0	1559352	181.9	90
0	1561318	182.1	100
0	1563101	182.3	110
0	1564894	182.5	120
0	1566683	182.7	130
0	1568476	182.9	140
0	1570305	183.1	150
0	1572088	183.3	160
0	1573620	183.5	170
0	1575576	183.7	180
0	1577461	183.9	190
0	1578715	184.1	200
0	1580566	184.3	210
0	1582655	184.5	220
0	1588287	185.103	230
0	1588287	185.103	240
0	1588287	185.103	250
0	1590169	185.3	260
0	1591956	185.5	260
0	1591971	185.5	270
0	1593566	185.7	280
0	1595169	185.9	30
0	1597426	186.1	40
0	1599303	186.3	50
0	1601088	186.5	60
0	1602626	186.7	70
0	1604598	186.9	80
0	1606511	187.1	90
0	1607999	187.3	100
0	1610065	187.5	110
0	1611892	187.7	120
0	1613677	187.9	130
0	1615196	188.1	140
0	1617178	188.3	150
0	1619100	188.5	160
0	1623273	188.998	170
0	1623273	188.998	180
0	1624130	189.1	190
0	1626284	189.3	200
0	1628141	189.5	210
0	1629922	189.7	220
0	1631711	189.9	230
0	1633544	190.1	240
0	1635069	190.3	250
0	1636614	190.5	250
0	1636629	190.5	260
0	1638674	190.7	270
0	1643168	191.195	40
0	1643168	191.195	50
0	1646696	191.594	60
0	1646696	191.594	70
0	1650770	191.999	80
0	1650770	191.999	90
0	1651649	192.1	100
0	1653622	192.3	110
0	1655081	192.5	120
0	1656822	192.7	130
0	1658728	192.9	140
0	1660608	193.1	150
0	1662375	193.3	160
0	1664476	193.5	170
0	1666263	193.7	180
0	1668056	193.9	190
0	1669889	194.1	200
0	1671668	194.3	210
0	1673457	194.5	220
0	1675248	194.7	230
0	1676776	194.9	240
0	1678468	195.1	250
0	1680557	195.3	260
0	1682460	195.5	260
0	1682475	195.5	270
0	1684033	195.7	270
0	1686097	195.9	30
0	1687966	196.1	40
0	1689441	196.3	50
0	1691403	196.5	60
0	1692780	196.7	70
0	1694382	196.9	80
0	1699632	197.394	90
0	1699632	197.394	100
0	1700506	197.5	110
0	1702197	197.7	120
0	1704034	197.9	130
0	1706109	198.1	140
0	1707906	198.3	150
0	1709691	198.5	160
0	1711478	198.7	170
0	1712955	198.9	180
0	1714975	199.1	190
0	1716897	199.3	200
0	1721268	199.796	210
0	1721268	199.796	220
0	1724901	200.194	230
0	1724901	200.194	240
0	1725774	200.3	250
0	1727703	200.5	250
0	1727718	200.5	260
0	1729567	200.7	270
0	1731121	200.9	30
0	1733135	201.1	40
0	1734709	201.3	50
0	1736487	201.5	60
0	1738390	201.7	70
0	1739912	201.9	80
0	1741847	202.1	90
0	1744090	202.3	100
0	1748292	202.798	110
0	1748292	202.798	120
0	1749045	202.9	130
0	1753741	203.396	140
0	1753741	203.396	150
0	1754549	203.5	160
0	1760267	204.142	170
0	1760267	204.142	180
0	1760267	204.142	190
0	1761937	204.3	200
0	1764034	204.5	210
0	1765522	204.7	220
0	1767608	204.9	230
0	1769461	205.1	240
0	1771248	205.3	250
0	1772718	205.5	250
0	1772733	205.5	260
0	1774877	205.7	270
0	1776694	205.9	40
0	1778533	206.1	50
0	1780316	206.3	60
0	1782093	206.5	70
0	1783336	206.7	80
0	1785599	206.9	90
0	1790159	207.406	100
0	1790159	207.406	110
0	1790951	207.5	120
0	1792943	207.7	130
0	1794472	207.9	140
0	1796071	208.1	150
0	1798030	208.3	160
0	1800062	208.5	170
0	1801695	208.7	180
0	1806339	209.196	190
0	1806339	209.196	200
0	1807283	209.3	210
0	1809254	209.5	220
0	1813599	209.993	230
0	1813599	209.993	240
0	1817280	210.404	250
0	1817280	210.404	260
0	1818084	210.5	260
0	1818099	210.5	270
0	1822700	210.994	20
0	1822700	210.994	30
0	1823615	211.1	40
0	1825558	211.3	50
0	1827096	211.5	60
0	1829066	211.7	70
0	1830943	211.9	80
0	1832776	212.1	90
0	1834563	212.3	100
0	1836338	212.5	110
0	1838143	212.7	120
0	1839926	212.9	130
0	1844327	213.398	140
0	1844327	213.398	150
0	1845177	213.5	160
0	1847124	213.7	170
0	1848925	213.9	180
0	1850746	214.1	190
0	1852533	214.3	200
0	1854068	214.5	210
0	1855909	214.7	220
0	1857684	214.9	230
0	1859573	215.1	240
0	1861604	215.3	250
0	1863385	215.5	250
0	1863400	215.5	260
0	1865245	215.7	270
0	1867042	215.9	30
0	1868875	216.1	40
0	1870654	216.3	50
0	1872135	216.5	60
0	1874085	216.7	70
0	1876031	216.9	80
0	1877860	217.1	90
0	1879339	217.3	100
0	1881291	217.5	110
0	1883247	217.7	120
0	1885036	217.9	130
0	1886867	218.1	140
0	1888654	218.3	150
0	1890432	218.5	160
0	1891649	218.7	170
0	1893492	218.9	180
0	1895891	219.1	190
0	1897684	219.3	200
0	1901927	219.794	210
0	1904209	220.09	220
0	1904209	220.09	230
0	1904526	220.1	240
0	1906715	220.3	250
0	1908502	220.5	250
0	1908517	220.5	260
0	1910366	220.7	270
0	1912157	220.9	30
0	1913668	221.1	40
0	1914879	221.3	50
0	1916855	221.5	60
0	1919406	221.7	70
0	1921201	221.9	80
0	1923036	222.1	90
0	1924821	222.3	100
0	1926286	222.5	110
0	1928272	222.7	120
0	1929943	222.9	130
0	1931953	223.1	140
0	1933842	223.3	150
0	1935611	223.5	160
0	1939883	223.999	170
0	1939883	223.999	180
0	1940844	224.1	190
0	1945456	224.6	200
0	1945456	224.6	210
0	1946293	224.7	220
0	1950867	225.198	230
0	1950867	225.198	240
0	1953055	225.5	240
0	1954424	225.599	250
0	1954424	225.599	260
0	1955333	225.7	270
0	1957364	225.9	40
0	1959197	226.1	50
0	1963227	226.594	60
0	1963227	226.594	70
0	1964086	226.7	80
0	1968776	227.195	90
0	1971069	227.494	100
0	1974111	227.793	110
0	1974111	227.793	120
0	1974111	227.793	130
0	1975236	227.9	140
0	1977066	228.1	150
0	1978788	228.3	160
0	1980548	228.5	170
0	1982708	228.7	180
0	1984535	228.9	190
0	1986362	229.1	200
0	1988153	229.3	210
0	1989940	229.5	220
0	1994281	229.994	230
0	1994281	229.994	240
0	1997696	230.394	250
0	1997696	230.394	260
0	1998496	230.5	260
0	1998511	230.5	270
0	2000765	230.7	270
0	2002622	230.9	40
0	2004463	231.1	50
0	2005990	231.3	60
0	2010640	231.794	70
0	2010640	231.794	80
0	2011509	231.9	90
0	2013498	232.1	100
0	2015299	232.3	110
0	2017074	232.5	120
0	2018873	232.7	130
0	2020656	232.9	140
0	2022481	233.1	150
0	2024274	233.3	160
0	2028625	233.796	170
0	2028625	233.796	180
0	2029485	233.9	190
0	2030873	234.1	200
0	2033120	234.3	210
0	2034834	234.5	220
0	2036685	234.7	230
0	2038706	234.9	240
0	2040545	235.1	250
0	2042330	235.3	260
0	2043787	235.5	260
0	2046673	235.795	260
0	2046673	235.795	270
0	2047612	235.9	280
0	2049379	236.1	50
0	2053795	236.6	60
0	2053795	236.6	70
0	2054773	236.7	80
0	2056895	236.9	90
0	2058730	237.1	100
0	2062985	237.596	110
0	2065217	237.891	120
0	2065217	237.891	130
0	2065528	237.9	140
0	2067765	238.1	150
0	2069550	238.3	160
0	2071349	238.5	170
0	2073136	238.7	180
0	2074923	238.9	190
0	2076754	239.1	200
0	2081096	239.594	210
0	2083219	239.889	220
0	2083219	239.889	230
0	2083532	239.9	240
0	2085787	240.1	250
0	2087572	240.3	260
0	2089092	240.5	260
0	2089107	240.5	270
0	2091165	240.7	270
0	2093020	240.9	40
0	2094539	241.1	50
0	2096527	241.3	60
0	2097938	241.5	70
0	2099765	241.7	80
0	2102060	241.9	90
0	2103897	242.1	100
0	2105678	242.3	110
0	2109910	242.794	120
0	2109910	242.794	130
0	2110821	242.9	140
0	2112287	243.1	150
0	2114560	243.3	160
0	2116246	243.5	170
0	2118101	243.7	180
0	2120130	243.9	190
0	2121965	244.1	200
0	2123744	244.3	210
0	2125537	244.5	220
0	2127324	244.7	230
0	2129115	244.9	240
0	2130940	245.1	250
0	2132727	245.3	260
0	2134251	245.5	260
0	2134266	245.5	270
0	2136294	245.7	280
0	2138185	245.9	40
0	2142361	246.393	50
0	2144356	246.693	60
0	2144356	246.693	70
0	2147813	247	80
0	2147813	247	90
0	2153226	247.639	100
0	2153226	247.639	110
0	2153226	247.639	120
0	2154159	247.7	130
0	2156399	247.9	140
0	2160707	248.397	150
0	2160707	248.397	160
0	2161608	248.5	170
0	2163653	248.7	180
0	2165450	248.9	190
0	2167277	249.1	200
0	2169068	249.3	210
0	2170847	249.5	220
0	2172642	249.7	230
0	2174431	249.9	240
0	2178254	250.396	250
0	2178254	250.396	260
0	2179039	250.5	260
0	2179054	250.5	270
0	2181043	250.7	280
0	2185429	251.196	40
0	2185429	251.196	50
0	2186325	251.3	60
0	2188508	251.5	70
0	2190564	251.7	80
0	2192582	251.9	90
0	2197037	252.393	100
0	2199199	252.692	110
0	2199199	252.692	120
0	2202482	252.996	130
0	2202482	252.996	140
0	2206134	253.396	150
0	2208298	253.693	160
0	2210712	253.988	170
0	2210712	253.988	180
0	2210712	253.988	190
0	2211812	254.1	200
0	2213978	254.3	210
0	2216071	254.5	220
0	2220702	254.994	230
0	2220702	254.994	240
0	2221616	255.1	250
0	2223553	255.3	260
0	2225043	255.5	260
0	2225058	255.5	270
0	2227190	255.7	270
0	2229011	255.9	40
0	2230549	256.1	50
0	2232331	256.3	60
0	2234067	256.5	70
0	2235857	256.7	80
0	2237976	256.9	90
0	2239901	257.1	100
0	2241437	257.3	110
0	2243393	257.5	120
0	2245031	257.7	130
0	2247008	257.9	140
0	2248670	258.1	150
0	2250653	258.3	160
0	2252208	258.5	170
0	2254186	258.7	180
0	2255863	258.9	190
0	2257887	259.1	200
0	2259740	259.3	210
0	2261271	259.5	220
0	2263116	259.7	230
0	2264848	259.9	240
0	2266701	260.1	250
0	2270253	260.5	250
0	2271398	260.594	250
0	2271398	260.594	260
0	2274828	260.994	30
0	2274828	260.994	40
0	2275695	261.1	50
0	2277583	261.3	60
0	2279368	261.5	70
0	2281071	261.7	80
0	2283069	261.9	90
0	2289827	262.73	100
0	2292517	263.024	110
0	2292517	263.024	120
0	2292517	263.024	130
0	2292517	263.024	140
0	2293537	263.1	150
0	2296096	263.3	160
0	2297915	263.5	170
0	2299700	263.7	180
0	2301477	263.9	190
0	2305886	264.395	200
0	2305886	264.395	210
0	2306752	264.5	220
0	2308695	264.7	230
0	2310492	264.9	240
0	2312319	265.1	250
0	2313809	265.3	260
0	2315863	265.5	260
0	2315878	265.5	270
0	2317757	265.7	270
0	2322187	266.197	30
0	2324319	266.492	40
0	2324319	266.492	50
0	2324608	266.5	60
0	2326813	266.7	70
0	2327986	266.9	80
0	2330257	267.1	90
0	2332261	267.3	100
0	2334046	267.5	110
0	2335833	267.7	120
0	2340252	268.201	130
0	2340252	268.201	140
0	2341085	268.3	150
0	2343049	268.5	160
0	2344840	268.7	170
0	2346623	268.9	180
0	2348460	269.1	190
0	2350247	269.3	200
0	2352026	269.5	210
0	2353562	269.7	220
0	2355534	269.9	230
0	2357191	270.1	240
0	2358877	270.3	250
0	2360739	270.5	250
0	2360754	270.5	260
0	2362910	270.7	270
0	2364496	270.9	30
0	2366385	271.1	40
0	2368158	271.3	50
0	2370007	271.5	60
0	2372036	271.7	70
0	2373821	271.9	80
0	2375398	272.1	90
0	2377239	272.3	100
0	2379262	272.5	110
0	2380745	272.7	120
0	2382703	272.9	130
0	2384693	273.1	140
0	2386480	273.3	150
0	2388261	273.5	160
0	2389798	273.7	170
0	2391222	273.9	180
0	2392710	274.1	190
0	2394250	274.3	200
0	2396646	274.5	210
0	2399159	274.7	220
0	2400694	274.9	230
0	2402591	275.1	240
0	2404321	275.3	250
0	2406375	275.5	250
0	2406390	275.5	260
0	2408269	275.7	270
0	2410068	275.9	30
0	2411638	276.1	40
0	2413488	276.3	50
0	2415509	276.5	60
0	2417302	276.7	70
0	2418825	276.9	80
0	2423539	277.399	90
0	2425410	277.693	100
0	2425410	277.693	110
0	2425682	277.7	120
0	2430799	278.195	130
0	2430799	278.195	140
0	2434388	278.595	150
0	2434388	278.595	160
0	2435262	278.7	170
0	2437211	278.9	180
0	2439038	279.1	190
0	2440569	279.3	200
0	2442410	279.5	210
0	2444445	279.7	220
0	2449564	280.35	230
0	2449564	280.35	240
0	2449564	280.35	250
0	2451174	280.5	250
0	2451189	280.5	260
0	2452733	280.7	270
0	2454994	280.9	40
0	2456984	281.1	50
0	2458766	281.3	60
0	2460245	281.5	70
0	2462177	281.7	80
0	2464223	281.9	90
0	2466355	282.1	100
0	2467608	282.3	110
0	2469252	282.5	120
0	2471393	282.7	130
0	2473286	282.9	140
0	2475378	283.1	150
0	2477218	283.3	160
0	2479007	283.5	170
0	2480793	283.7	180
0	2482584	283.9	190
0	2484411	284.1	200
0	2486204	284.3	210
0	2487983	284.5	220
0	2489774	284.7	230
0	2491553	284.9	240
0	2495958	285.394	250
0	2495958	285.394	260
0	2496812	285.5	260
0	2496827	285.5	270
0	2498834	285.7	270
0	2500338	285.9	30
0	2502446	286.1	40
0	2507866	286.744	50
0	2507866	286.744	60
0	2507866	286.744	70
0	2509436	286.9	80
0	2511505	287.1	90
0	2513300	287.3	100
0	2515087	287.5	110
0	2516318	287.7	120
0	2521309	288.195	130
0	2521309	288.195	140
0	2522169	288.3	150
0	2524114	288.5	160
0	2525355	288.7	170
0	2527564	288.9	180
0	2528999	289.1	190
0	2530758	289.3	200
0	2536590	289.943	210
0	2538997	290.237	220
0	2538997	290.237	230
0	2538997	290.237	240
0	2539708	290.3	250
0	2541603	290.5	250
0	2541618	290.5	260
0	2543352	290.7	270
0	2545879	290.9	40
0	2547261	291.1	50
0	2549024	291.3	60
0	2551379	291.5	70
0	2552967	291.7	80
0	2554921	291.9	90
0	2556852	292.1	100
0	2558386	292.3	110
0	2560344	292.5	120
0	2562215	292.7	130
0	2563760	292.9	140
0	2565645	293.1	150
0	2567371	293.3	160
0	2568884	293.5	170
0	2571037	293.7	180
0	2573091	293.9	190
0	2574926	294.1	200
0	2576701	294.3	210
0	2578203	294.5	220
0	2579664	294.7	230
0	2581578	294.9	240
0	2583692	295.1	250
0	2587240	295.5	250
0	2588395	295.595	260
0	2588395	295.595	270
0	2589271	295.7	270
0	2593846	296.197	40
0	2593846	296.197	50
0	2594704	296.3	60
0	2596331	296.5	70
0	2598325	296.7	80
0	2600241	296.9	90
0	2601762	297.1	100
0	2603234	297.3	110
0	2605152	297.5	120
0	2607489	297.7	130
0	2609288	297.9	140
0	2611123	298.1	150
0	2612900	298.3	160
0	2614695	298.5	170
0	2616482	298.7	180
0	2618010	298.9	190
0	2620030	299.1	200
0	2621606	299.3	210
0	2626273	299.796	220
0	2626273	299.796	230
0	2627136	299.9	240
0	2629129	300.1	250
0	2630912	300.3	260
0	2632697	300.5	260
0	2632712	300.5	270
0	2634549	300.7	270
0	2636352	300.9	30
0	2637890	301.1	40
0	2639938	301.3	50
0	2641773	301.5	60
0	2643242	301.7	70
0	2645196	301.9	80
0	2647192	302.1	90
0	2648983	302.3	100
0	2650770	302.5	110
0	2652555	302.7	120
0	2658455	303.494	130
0	2658455	303.494	140
0	2658455	303.494	150
0	2658932	303.5	160
0	2661028	303.7	170
0	2662177	303.9	180
0	2664378	304.1	190
0	2666300	304.3	200
0	2668824	304.5	210
0	2670077	304.7	220
0	2672325	304.9	230
0	2674343	305.1	240
0	2676132	305.3	250
0	2677388	305.5	250
0	2677403	305.5	260
0	2679356	305.7	270
0	2681310	305.9	40
0	2683382	306.1	50
0	2684636	306.3	60
0	2686873	306.5	70
0	2688558	306.7	80
0	2690081	306.9	90
0	2692131	307.1	100
0	2694260	307.3	110
0	2695891	307.5	120
0	2697740	307.7	130
0	2699765	307.9	140
0	2701596	308.1	150
0	2703092	308.3	160
0	2705162	308.5	170
0	2709548	308.999	180
0	2709548	308.999	190
0	2710445	309.1	200
0	2712135	309.3	210
0	2713837	309.5	220
0	2715627	309.7	230
0	2717483	309.9	240
0	2722113	310.5	240
0	2722981	310.542	250
0	2725407	310.837	20
0	2725407	310.837	30
0	2725407	310.837	40
0	2726175	310.9	50
0	2728279	311.1	60
0	2730399	311.3	70
0	2732407	311.5	80
0	2734278	311.7	90
0	2739521	312.349	100
0	2739521	312.349	110
0	2739521	312.349	120
0	2741265	312.5	130
0	2743298	312.7	140
0	2745095	312.9	150
0	2746914	313.1	160
0	2748709	313.3	170
0	2750496	313.5	180
0	2752281	313.7	190
0	2754076	313.9	200
0	2755901	314.1	210
0	2757690	314.3	220
0	2761715	314.796	230
0	2761715	314.796	240
0	2762821	314.9	250
0	2764970	315.1	260
0	2766759	315.3	270
0	2768241	315.5	270
0	2768256	315.5	280
0	2770368	315.7	270
0	2771962	315.9	40
0	2773974	316.1	50
0	2775846	316.3	60
0	2777318	316.5	70
0	2779274	316.7	80
0	2781220	316.9	90
0	2783051	317.1	100
0	2787421	317.593	110
0	2787421	317.593	120
0	2788296	317.7	130
0	2789987	317.9	140
0	2791848	318.1	150
0	2793909	318.3	160
0	2795700	318.5	170
0	2797489	318.7	180
0	2801883	319.195	190
0	2801883	319.195	200
0	2802738	319.3	210
0	2807302	319.796	220
0	2807302	319.796	230
0	2808141	319.9	240
0	2809828	320.1	250
0	2811786	320.3	260
0	2813728	320.5	260
0	2813743	320.5	270
0	2819091	321.142	20
0	2819091	321.142	30
0	2819091	321.142	40
0	2820551	321.3	50
0	2822556	321.5	60
0	2824661	321.7	70
0	2826140	321.9	80
0	2828168	322.1	90
0	2830094	322.3	100
0	2834288	322.797	110
0	2834288	322.797	120
0	2835045	322.9	130
0	2839594	323.394	140
0	2839594	323.394	150
0	2840464	323.5	160
0	2845157	324	170
0	2845157	324	180
0	2845950	324.1	190
0	2848176	324.3	200
0	2850001	324.5	210
0	2851790	324.7	220
0	2853571	324.9	230
0	2857746	325.396	240
0	2857746	325.396	250
0	2858625	325.5	250
0	2858640	325.5	260
0	2860834	325.7	270
0	2862713	325.9	40
0	2864282	326.1	50
0	2865837	326.3	60
0	2868156	326.5	70
0	2869714	326.7	80
0	2871676	326.9	90
0	2873605	327.1	100
0	2875396	327.3	110
0	2877181	327.5	120
0	2878960	327.7	130
0	2880747	327.9	140
0	2885037	328.396	150
0	2885037	328.396	160
0	2885950	328.5	170
0	2887717	328.7	180
0	2889310	328.9	190
0	2891270	329.1	200
0	2893110	329.3	210
0	2894811	329.5	220
0	2897038	329.7	230
0	2898863	329.9	240
0	2900397	330.1	250
0	2902473	330.3	260
0	2904276	330.5	260
0	2904291	330.5	270
0	2906138	330.7	280
0	2907917	330.9	30
0	2909195	331.1	40
0	2910691	331.3	50
0	2912414	331.5	60
0	2917364	331.995	70
0	2917364	331.995	80
0	2918297	332.1	90
0	2920377	332.3	100
0	2921887	332.5	110
0	2923738	332.7	120
0	2925829	332.9	130
0	2927734	333.1	140
0	2929737	333.3	150
0	2930963	333.5	160
0	2932624	333.7	170
0	2935070	333.9	180
0	2939587	334.4	190
0	2939587	334.4	200
0	2942861	334.795	210
0	2942861	334.795	220
0	2943669	334.9	230
0	2945921	335.1	240
0	2947849	335.3	250
0	2949634	335.5	250
0	2949649	335.5	260
0	2951482	335.7	270
0	2952720	335.9	30
0	2954947	336.1	40
0	2959520	336.594	50
0	2959520	336.594	60
0	2960393	336.7	70
0	2962326	336.9	80
0	2964175	337.1	90
0	2965659	337.3	100
0	2970324	337.793	110
0	2970324	337.793	120
0	2971209	337.9	130
0	2972880	338.1	140
0	2974830	338.3	150
0	2976541	338.5	160
0	2978499	338.7	170
0	2980380	338.9	180
0	2981920	339.1	190
0	2986257	339.594	200
0	2986257	339.594	210
0	2987088	339.7	220
0	2991885	340.198	230
0	2991885	340.198	240
0	2992631	340.3	250
0	2994767	340.5	250
0	2994782	340.5	260
0	2996766	340.7	270
0	2998573	340.9	30
0	3000398	341.1	40
0	3002185	341.3	50
0	3003976	341.5	60
0	3005763	341.7	70
0	3007550	341.9	80
0	3009090	342.1	90
0	3011156	342.3	100
0	3012977	342.5	110
0	3014760	342.7	120
0	3016541	342.9	130
0	3018380	343.1	140
0	3020169	343.3	150
0	3021078	343.5	160
0	3022769	343.7	170
0	3025272	343.9	180
0	3027203	344.1	190
0	3029236	344.3	200
0	3031019	344.5	210
0	3036066	345.143	220
0	3038650	345.437	230
0	3038650	345.437	240
0	3038650	345.437	250
0	3039479	345.5	250
0	3039494	345.5	260
0	3041107	345.7	270
0	3043002	345.9	30
0	3045611	346.1	40
0	3047148	346.3	50
0	3048822	346.5	60
0	3053632	346.995	70
0	3053632	346.995	80
0	3054538	347.1	90
0	3056475	347.3	100
0	3058274	347.5	110
0	3060067	347.7	120
0	3061852	347.9	130
0	3063679	348.1	140
0	3065466	348.3	150
0	3067249	348.5	160
0	3068790	348.7	170
0	3070627	348.9	180
0	3072708	349.1	190
0	3074493	349.3	200
0	3078414	349.794	210
0	3078414	349.794	220
0	3079278	349.9	230
0	3081614	350.1	240
0	3084996	350.5	240
0	3086151	350.595	250
0	3086151	350.595	260
0	3087029	350.7	270
0	3088986	350.9	40
0	3090509	351.1	50
0	3095074	351.593	60
0	3095074	351.593	70
0	3096040	351.7	80
0	3100408	352.198	90
0	3100408	352.198	100
0	3101198	352.3	110
0	3103420	352.5	120
0	3104950	352.7	130
0	3106770	352.9	140
0	3108687	353.1	150
0	3110454	353.3	160
0	3112047	353.5	170
0	3114280	353.7	180
0	3115840	353.9	190
0	3117952	354.1	200
0	3123030	354.744	210
0	3125413	355.035	220
0	3125413	355.035	230
0	3125413	355.035	240
0	3126340	355.1	250
0	3128221	355.3	260
0	3129954	355.5	260
0	3129969	355.5	270
0	3132221	355.7	270
0	3134294	355.9	40
0	3135968	356.1	50
0	3140227	356.595	60
0	3140227	356.595	70
0	3140935	356.7	80
0	3142665	356.9	90
0	3147665	357.396	100
0	3147665	357.396	110
0	3148468	357.5	120
0	3150376	357.7	130
0	3152433	357.9	140
0	3156649	358.396	150
0	3156649	358.396	160
0	3157674	358.5	170
0	3159719	358.7	180
0	3161514	358.9	190
0	3163341	359.1	200
0	3164875	359.3	210
0	3166537	359.5	220
0	3168316	359.7	230
0	3170487	359.9	240
0	3172113	360.1	250
0	3174103	360.3	260
0	3175659	360.5	260
0	3175674	360.5	270
0	3177764	360.7	270
0	3179305	360.9	40
0	3180816	361.1	50
0	3182327	361.3	60
0	3187651	361.793	70
0	3187651	361.793	80
0	3188540	361.9	90
0	3190276	362.1	100
0	3194885	362.593	110
0	3194885	362.593	120
0	3195766	362.7	130
0	3197709	362.9	140
0	3199294	363.1	150
0	3200822	363.3	160
0	3202531	363.5	170
0	3204459	363.7	180
0	3206802	363.9	190
0	3208633	364.1	200
0	3210422	364.3	210
0	3212207	364.5	220
0	3213745	364.7	230
0	3215701	364.9	240
0	3217372	365.1	250
0	3218927	365.3	260
0	3221230	365.5	260
0	3221245	365.5	270
0	3223126	365.7	270
0	3227265	366.194	30
0	3227265	366.194	40
0	3228115	366.3	50
0	3230241	366.5	60
0	3232201	366.7	70
0	3233976	366.9	80
0	3235819	367.1	90
0	3237600	367.3	100
0	3241831	367.793	110
0	3241831	367.793	120
0	3242737	367.9	130
0	3244828	368.1	140
0	3246617	368.3	150
0	3248398	368.5	160
0	3249867	368.7	170
0	3251861	368.9	180
0	3253829	369.1	190
0	3255294	369.3	200
0	3257286	369.5	210
0	3259204	369.7	220
0	3263589	370.194	230
0	3263589	370.194	240
0	3264459	370.3	250
0	3265848	370.5	250
0	3269109	370.802	20
0	3271306	371.098	30
0	3271306	371.098	40
0	3271561	371.1	50
0	3273771	371.3	60
0	3275558	371.5	70
0	3277335	371.7	80
0	3278814	371.9	90
0	3280836	372.1	100
0	3282506	372.3	110
0	3284347	372.5	120
0	3286384	372.7	130
0	3288171	372.9	140
0	3290006	373.1	150
0	3291486	373.3	160
0	3293260	373.5	170
0	3297456	373.996	180
0	3297456	373.996	190
0	3298461	374.1	200
0	3300816	374.3	210
0	3302383	374.5	220
0	3306227	375.001	230
0	3306227	375.001	240
0	3307363	375.1	250
0	3309391	375.3	260
0	3311369	375.5	260
0	3311384	375.5	270
0	3313503	375.7	280
0	3315471	375.9	40
0	3317302	376.1	50
0	3318830	376.3	60
0	3320788	376.5	70
0	3322677	376.7	80
0	3324466	376.9	90
0	3326301	377.1	100
0	3328076	377.3	110
0	3329877	377.5	120
0	3331654	377.7	130
0	3333443	377.9	140
0	3335282	378.1	150
0	3337059	378.3	160
0	3338850	378.5	170
0	3340635	378.7	180
0	3342165	378.9	190
0	3343945	379.1	200
0	3345988	379.3	210
0	3347873	379.5	220
0	3349660	379.7	230
0	3351133	379.9	240
0	3353159	380.1	250
0	3354815	380.3	260
0	3356660	380.5	260
0	3356675	380.5	270
0	3358778	380.7	270
0	3360563	380.9	30
0	3362105	381.1	40
0	3363821	381.3	50
0	3365847	381.5	60
0	3367785	381.7	70
0	3369586	381.9	80
0	3371407	382.1	90
0	3373198	382.3	100
0	3374985	382.5	110
0	3376521	382.7	120
0	3378509	382.9	130
0	3382973	383.399	140
0	3382973	383.399	150
0	3386190	383.797	160
0	3386190	383.797	170
0	3387233	383.9	180
0	3389446	384.1	190
0	3391242	384.3	200
0	3393035	384.5	210
0	3394822	384.7	220
0	3399103	385.194	230
0	3399103	385.194	240
0	3400001	385.3	250
0	3402030	385.5	250
0	3402045	385.5	260
0	3403904	385.7	270
0	3405701	385.9	30
0	3410095	386.396	40
0	3410095	386.396	50
0	3410960	386.5	60
0	3412901	386.7	70
0	3414372	386.9	80
0	3416374	387.1	90
0	3418328	387.3	100
0	3420115	387.5	110
0	3421900	387.7	120
0	3423074	387.9	130
0	3425347	388.1	140
0	3427343	388.3	150
0	3429126	388.5	160
0	3430597	388.7	170
0	3432547	388.9	180
0	3434549	389.1	190
0	3436328	389.3	200
0	3438127	389.5	210
0	3439908	389.7	220
0	3441693	389.9	230
0	3443532	390.1	240
0	3445323	390.3	250
0	3446520	390.5	250
0	3446535	390.5	260
0	3447751	390.7	270
0	3449017	390.9	40
0	3456261	391.543	50
0	3456261	391.543	60
0	3456261	391.543	70
0	3460429	391.995	80
0	3460429	391.995	90
0	3461263	392.1	100
0	3466025	392.597	110
0	3466025	392.597	120
0	3466945	392.7	130
0	3468672	392.9	140
0	3470529	393.1	150
0	3472592	393.3	160
0	3474369	393.5	170
0	3475917	393.7	180
0	3477871	393.9	190
0	3481993	394.397	200
0	3481993	394.397	210
0	3483105	394.5	220
0	3485215	394.7	230
0	3487003	394.9	240
0	3488538	395.1	250
0	3490604	395.3	260
0	3492157	395.5	260
0	3492172	395.5	270
0	3494073	395.7	270
0	3495860	395.9	40
0	3497747	396.1	50
0	3499516	396.3	60
0	3501275	396.5	70
0	3503394	396.7	80
0	3505179	396.9	90
0	3510409	397.543	100
0	3510409	397.543	110
0	3510409	397.543	120
0	3515897	398.144	130
0	3515897	398.144	140
0	3515897	398.144	150
0	3517391	398.3	160
0	3522032	398.794	170
0	3522032	398.794	180
0	3522805	398.9	190
0	3524999	399.1	200
0	3528984	399.595	210
0	3531315	399.889	220
0	3531315	399.889	230
0	3531622	399.9	240
0	3534113	400.1	250
0	3536004	400.3	260
0	3537220	400.5	260
0	3537235	400.5	270
0	3538735	400.7	270
0	3541075	400.9	40
0	3545792	401.396	50
0	3545792	401.396	60
0	3546804	401.5	70
0	3548543	401.7	80
0	3550148	401.9	90
0	3552425	402.1	100
0	3554294	402.3	110
0	3556075	402.5	120
0	3557856	402.7	130
0	3559389	402.9	140
0	3560809	403.1	150
0	3562367	403.3	160
0	3564876	403.5	170
0	3566929	403.7	180
0	3568714	403.9	190
0	3570038	404.1	200
0	3571627	404.3	210
0	3574134	404.5	220
0	3575690	404.7	230
0	3577758	404.9	240
0	3579621	405.1	250
0	3581412	405.3	260
0	3583181	405.5	260
0	3583196	405.5	270
0	3584530	405.7	270
0	3586429	405.9	30
0	3588720	406.1	40
0	3590507	406.3	50
0	3592296	406.5	60
0	3594081	406.7	70
0	3595293	406.9	80
0	3600194	407.396	90
0	3600194	407.396	100
0	3601089	407.5	110
0	3602879	407.7	120
0	3604837	407.9	130
0	3606195	408.1	140
0	3608384	408.3	150
0	3610380	408.5	160
0	3611911	408.7	170
0	3613595	408.9	180
0	3618294	409.4	190
0	3618294	409.4	200
0	3621969	409.797	210
0	3621969	409.797	220
0	3622946	409.9	230
0	3624948	410.1	240
0	3626488	410.3	250
0	3628137	410.5	250
0	3628152	410.5	260
0	3630374	410.7	270
0	3631918	410.9	40
0	3633996	411.1	50
0	3635847	411.3	60
0	3637636	411.5	70
0	3639415	411.7	80
0	3641212	411.9	90
0	3643047	412.1	100
0	3644577	412.3	110
0	3646531	412.5	120
0	3648164	412.7	130
0	3650003	412.9	140
0	3652084	413.1	150
0	3653869	413.3	160
0	3655654	413.5	170
0	3657439	413.7	180
0	3658937	413.9	190
0	3661043	414.1	200
0	3662864	414.3	210
0	3664655	414.5	220
0	3666446	414.7	230
0	3668221	414.9	240
0	3670062	415.1	250
0	3671835	415.3	260
0	3673365	415.5	260
0	3673380	415.5	270
0	3675115	415.7	270
0	3677279	415.9	40
0	3679148	416.1	50
0	3683975	416.749	60
0	3683975	416.749	70
0	3683975	416.749	80
0	3685821	416.9	90
0	3687976	417.1	100
0	3692413	417.598	110
0	3692413	417.598	120
0	3693194	417.7	130
0	3695160	417.9	140
0	3697093	418.1	150
0	3699124	418.3	160
0	3700901	418.5	170
0	3702684	418.7	180
0	3704475	418.9	190
0	3708567	419.396	200
0	3710998	419.696	210
0	3710998	419.696	220
0	3711281	419.7	230
0	3716150	420.197	240
0	3716150	420.197	250
0	3717042	420.3	260
0	3719053	420.5	260
0	3719068	420.5	270
0	3723506	420.999	20
0	3723506	420.999	30
0	3724401	421.1	40
0	3726051	421.3	50
0	3727831	421.5	60
0	3729748	421.7	70
0	3734381	422.195	80
0	3734381	422.195	90
0	3735251	422.3	100
0	3736932	422.5	110
0	3738791	422.7	120
0	3740812	422.9	130
0	3742350	423.1	140
0	3744400	423.3	150
0	3746237	423.5	160
0	3747723	423.7	170
0	3749447	423.9	180
0	3751226	424.1	190
0	3753455	424.3	200
0	3755276	424.5	210
0	3757059	424.7	220
0	3758846	424.9	230
0	3760382	425.1	240
0	3762457	425.3	250
0	3764267	425.5	250
0	3764283	425.5	260
0	3766125	425.7	270
0	3767924	425.9	30
0	3769435	426.1	40
0	3771421	426.3	50
0	3773086	426.5	60
0	3775048	426.7	70
0	3776675	426.9	80
0	3778558	427.1	90
0	3780589	427.3	100
0	3782064	427.5	110
0	3784056	427.7	120
0	3785966	427.9	130
0	3787550	428.1	140
0	3789268	428.3	150
0	3791193	428.5	160
0	3792979	428.7	170
0	3794967	428.9	180
0	3796864	429.1	190
0	3798647	429.3	200
0	3800436	429.5	210
0	3801965	429.7	220
0	3803812	429.9	230
0	3805889	430.1	240
0	3807420	430.3	250
0	3809243	430.5	250
0	3809258	430.5	260
0	3811359	430.7	270
0	3813150	430.9	30
0	3814971	431.1	40
0	3816764	431.3	50
0	3818561	431.5	60
0	3820334	431.7	70
0	3824320	432.195	80
0	3824320	432.195	90
0	3825237	432.3	100
0	3827250	432.5	110
0	3829201	432.7	120
0	3831232	432.9	130
0	3833057	433.1	140
0	3834846	433.3	150
0	3836637	433.5	160
0	3838422	433.7	170
0	3839895	433.9	180
0	3841925	434.1	190
0	3843847	434.3	200
0	3845636	434.5	210
0	3847427	434.7	220
0	3849206	434.9	230
0	3850721	435.1	240
0	3852711	435.3	250
0	3854619	435.5	250
0	3854634	435.5	260
0	3856481	435.7	270
0	3858286	435.9	30
0	3860119	436.1	40
0	3861902	436.3	50
0	3863681	436.5	60
0	3865466	436.7	70
0	3867001	436.9	80
0	3868600	437.1	90
0	3870881	437.3	100
0	3872726	437.5	110
0	3874191	437.7	120
0	3876179	437.9	130
0	3878144	438.1	140
0	3879361	438.3	150
0	3881210	438.5	160
0	3883557	438.7	170
0	3885346	438.9	180
0	3887179	439.1	190
0	3888968	439.3	200
0	3890749	439.5	210
0	3892538	439.7	220
0	3894063	439.9	230
0	3895962	440.1	240
0	3897987	440.3	250
0	3899760	440.5	250
0	3899775	440.5	260
0	3901009	440.7	270
0	3903272	440.9	30
0	3905282	441.1	40
0	3907063	441.3	50
0	3908609	441.5	60
0	3910050	441.7	70
0	3912137	441.9	80
0	3914283	442.1	90
0	3916148	442.3	100
0	3917935	442.5	110
0	3919724	442.7	120
0	3921511	442.9	130
0	3923340	443.1	140
0	3925135	443.3	150
0	3929320	443.795	160
0	3929320	443.795	170
0	3930084	443.9	180
0	3931978	444.1	190
0	3933553	444.3	200
0	3935980	444.5	210
0	3937549	444.7	220
0	3939210	444.9	230
0	3941140	445.1	240
0	3942499	445.3	250
0	3944452	445.5	250
0	3944467	445.5	260
0	3946148	445.7	270
0	3948379	445.9	40
0	3949797	446.1	50
0	3951753	446.3	60
0	3954308	446.5	70
0	3959271	447.147	80
0	3961784	447.438	90
0	3961784	447.438	100
0	3961784	447.438	110
0	3965980	447.798	120
0	3965980	447.798	130
0	3966825	447.9	140
0	3968525	448.1	150
0	3970048	448.3	160
0	3971536	448.5	170
0	3973298	448.7	180
0	3978754	449.206	190
0	3978754	449.206	200
0	3979548	449.3	210
0	3981530	449.5	220
0	3983315	449.7	230
0	3985106	449.9	240
0	3986943	450.1	250
0	3988724	450.3	260
0	3990499	450.5	260
0	3990514	450.5	270
0	3994803	451.005	20
0	3994803	451.005	30
0	3995510	451.1	40
0	3997681	451.3	50
0	3999314	451.5	60
0	4001058	451.7	70
0	4003060	451.9	80
0	4004723	452.1	90
0	4006471	452.3	100
0	4008586	452.5	110
0	4010152	452.7	120
0	4012202	452.9	130
0	4014083	453.1	140
0	4015870	453.3	150
0	4017653	453.5	160
0	4019436	453.7	170
0	4020911	453.9	180
0	4025668	454.401	190
0	4025668	454.401	200
0	4026505	454.5	210
0	4028209	454.7	220
0	4030050	454.9	230
0	4031801	455.1	240
0	4035328	455.5	240
0	4036560	455.595	250
0	4036560	455.595	260
0	4037443	455.7	270
0	4039392	455.9	40
0	4040930	456.1	50
0	4042966	456.3	60
0	4043948	456.5	70
0	4045715	456.7	80
0	4048134	456.9	90
0	4050069	457.1	100
0	4052096	457.3	110
0	4053889	457.5	120
0	4055666	457.7	130
0	4057463	457.9	140
0	4061565	458.395	150
0	4061565	458.395	160
0	4062593	458.5	170
0	4064679	458.7	180
0	4069668	459.351	190
0	4069668	459.351	200
0	4069668	459.351	210
0	4071572	459.5	220
0	4072866	459.7	230
0	4078001	460.194	240
0	4078001	460.194	250
0	4078820	460.3	260
0	4080667	460.5	260
0	4080682	460.5	270
0	4082563	460.7	270
0	4084655	460.9	40
0	4088942	461.394	50
0	4088942	461.394	60
0	4089753	461.5	70
0	4091911	461.7	80
0	4093446	461.9	90
0	4095468	462.1	100
0	4097398	462.3	110
0	4099187	462.5	120
0	4100962	462.7	130
0	4102464	462.9	140
0	4104572	463.1	150
0	4108730	463.594	160
0	4108730	463.594	170
0	4109520	463.7	180
0	4111498	463.9	190
0	4113423	464.1	200
0	4115454	464.3	210
0	4119618	464.798	220
0	4119618	464.798	230
0	4120410	464.9	240
0	4124949	465.395	250
0	4124949	465.395	260
0	4125935	465.5	260
0	4125950	465.5	270
0	4128136	465.7	270
0	4129933	465.9	30
0	4131766	466.1	40
0	4133551	466.3	50
0	4135334	466.5	60
0	4137119	466.7	70
0	4138596	466.9	80
0	4140603	467.1	90
0	4142548	467.3	100
0	4144343	467.5	110
0	4146114	467.7	120
0	4147915	467.9	130
0	4149738	468.1	140
0	4151535	468.3	150
0	4153044	468.5	160
0	4154909	468.7	170
0	4156932	468.9	180
0	4158755	469.1	190
0	4160297	469.3	200
0	4162281	469.5	210
0	4163882	469.7	220
0	4165731	469.9	230
0	4167183	470.1	240
0	4168932	470.3	250
0	4170876	470.5	250
0	4170891	470.5	260
0	4173304	470.7	270
0	4175097	470.9	30
0	4176934	471.1	40
0	4178717	471.3	50
0	4180506	471.5	60
0	4182044	471.7	70
0	4184002	471.9	80
0	4185927	472.1	90
0	4187714	472.3	100
0	4189507	472.5	110
0	4191298	472.7	120
0	4192825	472.9	130
0	4194692	473.1	140
0	4196741	473.3	150
0	4198198	473.5	160
0	4199953	473.7	170
0	4202064	473.9	180
0	4203971	474.1	190
0	4205752	474.3	200
0	4207545	474.5	210
0	4209324	474.7	220
0	4210803	474.9	230
0	4212801	475.1	240
0	4214496	475.3	250
0	4216450	475.5	250
0	4216465	475.5	260
0	4218404	475.7	270
0	4220197	475.9	30
0	4221708	476.1	40
0	4223371	476.3	50
0	4225287	476.5	60
0	4229796	476.996	70
0	4229796	476.996	80
0	4230603	477.1	90
0	4232470	477.3	100
0	4234629	477.5	110
0	4239045	477.997	120
0	4239045	477.997	130
0	4242687	478.396	140
0	4242687	478.396	150
0	4243550	478.5	160
0	4245491	478.7	170
0	4249616	479.199	180
0	4249616	479.199	190
0	4250423	479.3	200
0	4252472	479.5	210
0	4254274	479.7	220
0	4256071	479.9	230
0	4258068	480.1	240
0	4260085	480.3	250
0	4261621	480.5	250
0	4261636	480.5	260
0	4263688	480.7	270
0	4265545	480.9	40
0	4267378	481.1	50
0	4271598	481.601	60
0	4274427	481.954	70
0	4274427	481.954	80
0	4274427	481.954	90
0	4275945	482.1	100
0	4278141	482.3	110
0	4280026	482.5	120
0	4281817	482.7	130
0	4286215	483.196	140
0	4286215	483.196	150
0	4287082	483.3	160
0	4289019	483.5	170
0	4290812	483.7	180
0	4292601	483.9	190
0	4294172	484.1	200
0	4296013	484.3	210
0	4298040	484.5	220
0	4299831	484.7	230
0	4301624	484.9	240
0	4303453	485.1	250
0	4306441	485.5	250
0	4308772	485.742	10
0	4308772	485.742	20
0	4308772	485.742	30
0	4310191	485.9	40
0	4312512	486.1	50
0	4314360	486.3	60
0	4318499	486.797	70
0	4318499	486.797	80
0	4319263	486.9	90
0	4321453	487.1	100
0	4323371	487.3	110
0	4325164	487.5	120
0	4329524	487.998	130
0	4329524	487.998	140
0	4330417	488.1	150
0	4332376	488.3	160
0	4334157	488.5	170
0	4335946	488.7	180
0	4340336	489.195	190
0	4340336	489.195	200
0	4341207	489.3	210
0	4342888	489.5	220
0	4344582	489.7	230
0	4346448	489.9	240
0	4348643	490.1	250
0	4350430	490.3	260
0	4351956	490.5	260
0	4351971	490.5	270
0	4353991	490.7	270
0	4355878	490.9	40
0	4357723	491.1	50
0	4359192	491.3	60
0	4361144	491.5	70
0	4362548	491.7	80
0	4364781	491.9	90
0	4366734	492.1	100
0	4367956	492.3	110
0	4369805	492.5	120
0	4372146	492.7	130
0	4376560	493.197	140
0	4376560	493.197	150
0	4377411	493.3	160
0	4381897	493.799	170
0	4381897	493.799	180
0	4382828	493.9	190
0	4387401	494.396	200
0	4387401	494.396	210
0	4388259	494.5	220
0	4389907	494.7	230
0	4391694	494.9	240
0	4393786	495.1	250
0	4395639	495.3	260
0	4397426	495.5	260
0	4397441	495.5	270
0	4399286	495.7	280
0	4403472	496.203	30
0	4403472	496.203	40
0	4404228	496.3	50
0	4406342	496.5	60
0	4408371	496.7	70
0	4409904	496.9	80
0	4411793	497.1	90
0	4413826	497.3	100
0	4415611	497.5	110
0	4417396	497.7	120
0	4418888	497.9	130
0	4420992	498.1	140
0	4425250	498.748	150
0	4425250	498.748	160
0	4425250	498.748	170
0	4426959	498.9	180
0	4430028	499.1	190
0	4431888	499.3	200
0	4433673	499.5	210
0	4435169	499.7	220
0	4437235	499.9	230
0	4439098	500.1	240
0	4440883	500.3	250
0	4442658	500.5	250
0	4442673	500.5	260
0	4444196	500.7	270
0	4445624	500.9	30
0	4448060	501.1	40
0	4452555	501.593	50
0	4452555	501.593	60
0	4453439	501.7	70
0	4455386	501.9	80
0	4457219	502.1	90
0	4459004	502.3	100
0	4460538	502.5	110
0	4462195	502.7	120
0	4464343	502.9	130
0	4466228	503.1	140
0	4467726	503.3	150
0	4469791	503.5	160
0	4471315	503.7	170
0	4473364	503.9	180
0	4475251	504.1	190
0	4477042	504.3	200
0	4478823	504.5	210
0	4480614	504.7	220
0	4482395	504.9	230
0	4484234	505.1	240
0	4486023	505.3	250
0	4487788	505.5	250
0	4487803	505.5	260
0	4489654	505.7	270
0	4491131	505.9	30
0	4492533	506.1	40
0	4494416	506.3	50
0	4496508	506.5	60
0	4498419	506.7	70
0	4500472	506.9	80
0	4502389	507.1	90
0	4503881	507.3	100
0	4505953	507.5	110
0	4507768	507.7	120
0	4509295	507.9	130
0	4510886	508.1	140
0	4513207	508.3	150
0	4515026	508.5	160
0	4516562	508.7	170
0	4521261	509.199	180
0	4523404	509.494	190
0	4523404	509.494	200
0	4523683	509.5	210
0	4525879	509.7	220
0	4527663	509.9	230
0	4529500	510.1	240
0	4531025	510.3	250
0	4532525	510.5	250
0	4532540	510.5	260
0	4534833	510.7	270
0	4539167	511.193	40
0	4539167	511.193	50
0	4539980	511.3	60
0	4541892	511.5	70
0	4543957	511.7	80
0	4545843	511.9	90
0	4547361	512.1	100
0	4549339	512.3	110
0	4550942	512.5	120
0	4552909	512.7	130
0	4557476	513.197	140
0	4557476	513.197	150
0	4561078	513.597	160
0	4561078	513.597	170
0	4561929	513.7	180
0	4563888	513.9	190
0	4565709	514.1	200
0	4567243	514.3	210
0	4571487	514.797	220
0	4571487	514.797	230
0	4572453	514.9	240
0	4574630	515.1	250
0	4576647	515.3	260
0	4578436	515.5	260
0	4578451	515.5	270
0	4580298	515.7	270
0	4582091	515.9	30
0	4583675	516.1	40
0	4585622	516.3	50
0	4587198	516.5	60
0	4589142	516.7	70
0	4591094	516.9	80
0	4592933	517.1	90
0	4597296	517.594	100
0	4597296	517.594	110
0	4598162	517.7	120
0	4599862	517.9	130
0	4601636	518.1	140
0	4606100	518.593	150
0	4608385	518.89	160
0	4608385	518.89	170
0	4608746	518.9	180
0	4610732	519.1	190
0	4612515	519.3	200
0	4614575	519.5	210
0	4616422	519.7	220
0	4617962	519.9	230
1	5705	10.1	30
1	7564	10.3	40
1	9347	10.5	40
1	9362	10.5	50
1	11207	10.7	60
1	13006	10.9	30
1	14516	11.1	40
1	16470	11.3	50
1	18427	11.5	60
1	19886	11.7	70
1	21844	11.9	80
1	23844	12.1	90
1	27544	12.505	100
1	27544	12.505	110
1	29135	12.7	120
1	31032	12.9	130
1	32859	13.1	140
1	34328	13.3	150
1	36286	13.5	160
1	38232	13.7	170
1	40023	13.9	180
1	41856	14.1	190
1	43065	14.3	200
1	44592	14.5	210
1	46782	14.7	220
1	48523	14.9	230
1	50701	15.1	240
1	53899	15.5	240
1	54374	15.506	250
1	54374	15.506	260
1	56231	15.7	270
1	58196	15.9	40
1	60037	16.1	50
1	61828	16.3	60
1	63609	16.5	70
1	65402	16.7	80
1	66617	16.9	90
1	68814	17.1	100
1	72646	17.504	110
1	72646	17.504	120
1	74102	17.7	130
1	75847	17.9	140
1	77703	18.1	150
1	79906	18.3	160
1	81691	18.5	170
1	83470	18.7	180
1	85255	18.9	190
1	86518	19.1	200
1	88601	19.3	210
1	90702	19.5	220
1	93916	19.907	230
1	93916	19.907	240
1	98509	20.48	250
1	98509	20.48	260
1	98873	20.5	260
1	98888	20.5	270
1	101643	20.7	270
1	103480	20.9	30
1	105313	21.1	40
1	107086	21.3	50
1	108630	21.5	60
1	110272	21.7	70
1	112105	21.9	80
1	114059	22.1	90
1	118054	22.506	100
1	118054	22.506	110
1	119643	22.7	120
1	123484	23.113	130
1	123484	23.113	140
1	125140	23.3	150
1	126744	23.5	160
1	128730	23.7	170
1	130599	23.9	180
1	133915	24.306	190
1	133915	24.306	200
1	135612	24.5	210
1	137771	24.7	220
1	139309	24.9	230
1	141311	25.1	240
1	144746	25.5	240
1	145348	25.507	250
1	145348	25.507	260
1	146871	25.7	270
1	148460	25.9	40
1	150351	26.1	50
1	152376	26.3	60
1	155765	26.719	70
1	155765	26.719	80
1	157243	26.9	90
1	161583	27.309	100
1	161583	27.309	110
1	163106	27.5	120
1	165035	27.7	130
1	166820	27.9	140
1	168083	28.1	150
1	170220	28.3	160
1	172253	28.5	170
1	176053	28.915	180
1	176053	28.915	190
1	177265	29.1	200
1	178999	29.3	210
1	180888	29.5	220
1	182807	29.7	230
1	184323	29.9	240
1	185893	30.1	250
1	188065	30.3	260
1	190297	30.5	260
1	190312	30.5	270
1	192221	30.7	270
1	194012	30.9	280
1	195857	31.1	40
1	197636	31.3	50
1	199423	31.5	60
1	201206	31.7	70
1	202681	31.9	80
1	204675	32.1	90
1	206633	32.3	100
1	208422	32.5	110
1	210205	32.7	120
1	211996	32.9	130
1	213829	33.1	140
1	217659	33.505	150
1	217659	33.505	160
1	219164	33.7	170
1	220740	33.9	180
1	222744	34.1	190
1	224633	34.3	200
1	226150	34.5	210
1	228001	34.7	220
1	229766	34.9	230
1	231657	35.1	240
1	233696	35.3	250
1	235471	35.5	250
1	235486	35.5	260
1	237331	35.7	270
1	239132	35.9	30
1	240957	36.1	40
1	242752	36.3	50
1	245945	36.708	60
1	245945	36.708	70
1	247968	36.9	80
1	249709	37.1	90
1	251667	37.3	100
1	253616	37.5	110
1	255399	37.7	120
1	257190	37.9	130
1	259029	38.1	140
1	260808	38.3	150
1	262601	38.5	160
1	264066	38.7	170
1	266052	38.9	180
1	270647	39.481	190
1	270647	39.481	200
1	271007	39.5	210
1	273132	39.7	220
1	275017	39.9	230
1	277086	40.1	240
1	278875	40.3	250
1	280658	40.5	250
1	280673	40.5	260
1	282508	40.7	270
1	284055	40.9	30
1	285898	41.1	40
1	287659	41.3	50
1	289363	41.5	60
1	291371	41.7	70
1	293396	41.9	80
1	295239	42.1	90
1	297024	42.3	100
1	298811	42.5	110
1	300598	42.7	120
1	302381	42.9	130
1	303894	43.1	140
1	307762	43.506	150
1	307762	43.506	160
1	309222	43.7	170
1	311290	43.9	180
1	313283	44.1	190
1	315060	44.3	200
1	316855	44.5	210
1	318644	44.7	220
1	320435	44.9	230
1	322268	45.1	240
1	324047	45.3	250
1	325830	45.5	250
1	325845	45.5	260
1	327688	45.7	270
1	329238	45.9	30
1	330998	46.1	40
1	333055	46.3	50
1	334938	46.5	60
1	336725	46.7	70
1	338514	46.9	80
1	340345	47.1	90
1	341817	47.3	100
1	343775	47.5	110
1	345720	47.7	120
1	347509	47.9	130
1	349348	48.1	140
1	351121	48.3	150
1	352910	48.5	160
1	354384	48.7	170
1	356352	48.9	180
1	358345	49.1	190
1	360126	49.3	200
1	361907	49.5	210
1	363698	49.7	220
1	365238	49.9	230
1	367240	50.1	240
1	369125	50.3	250
1	370902	50.5	250
1	370917	50.5	260
1	372766	50.7	270
1	374242	50.9	30
1	376009	51.1	40
1	377821	51.3	50
1	379711	51.5	60
1	381677	51.7	70
1	383312	51.9	80
1	385082	52.1	90
1	387222	52.3	100
1	388840	52.5	110
1	390816	52.7	120
1	392357	52.9	130
1	394379	53.1	140
1	398234	53.504	150
1	398234	53.504	160
1	399835	53.7	170
1	401720	53.9	180
1	403549	54.1	190
1	405328	54.3	200
1	407123	54.5	210
1	408898	54.7	220
1	410689	54.9	230
1	412522	55.1	240
1	414053	55.3	250
1	415898	55.5	250
1	415913	55.5	260
1	417994	55.7	270
1	419783	55.9	30
1	421624	56.1	40
1	423104	56.3	50
1	427143	56.706	60
1	427143	56.706	70
1	428506	56.9	80
1	430189	57.1	90
1	432392	57.3	100
1	433960	57.5	110
1	437544	57.905	120
1	437544	57.905	130
1	439485	58.1	140
1	441527	58.3	150
1	445233	58.712	160
1	445233	58.712	170
1	446864	58.9	180
1	448777	59.1	190
1	450564	59.3	200
1	452345	59.5	210
1	456213	59.91	220
1	456213	59.91	230
1	457710	60.1	240
1	459302	60.3	250
1	461254	60.5	250
1	461269	60.5	260
1	465889	61.083	20
1	467975	61.29	30
1	467975	61.29	40
1	468287	61.3	50
1	470441	61.5	60
1	472260	61.7	70
1	474051	61.9	80
1	475886	62.1	90
1	477673	62.3	100
1	479450	62.5	110
1	480983	62.7	120
1	485108	63.113	130
1	485108	63.113	140
1	486649	63.3	150
1	488258	63.5	160
1	489970	63.7	170
1	491334	63.9	180
1	493574	64.1	190
1	495759	64.3	200
1	497644	64.5	210
1	499182	64.7	220
1	503246	65.11	230
1	503246	65.11	240
1	504822	65.3	250
1	506148	65.5	250
1	506163	65.5	260
1	507931	65.7	270
1	510146	65.9	40
1	512212	66.1	50
1	514001	66.3	60
1	515786	66.5	70
1	517579	66.7	80
1	519360	66.9	90
1	520925	67.1	100
1	522461	67.3	110
1	524456	67.5	120
1	526628	67.7	130
1	528421	67.9	140
1	530242	68.1	150
1	531711	68.3	160
1	533705	68.5	170
1	535615	68.7	180
1	537408	68.9	190
1	538982	69.1	200
1	540976	69.3	210
1	542831	69.5	220
1	544620	69.7	230
1	546403	69.9	240
1	548244	70.1	250
1	550029	70.3	260
1	551800	70.5	260
1	551815	70.5	270
1	553415	70.7	280
1	555383	70.9	30
1	557308	71.1	40
1	558846	71.3	50
1	560824	71.5	60
1	562368	71.7	70
1	564328	71.9	80
1	566319	72.1	90
1	567537	72.3	100
1	569372	72.5	110
1	573634	72.905	120
1	573634	72.905	130
1	575357	73.1	140
1	579221	73.505	150
1	579221	73.505	160
1	580738	73.7	170
1	582233	73.9	180
1	583998	74.1	190
1	585544	74.3	200
1	587283	74.5	210
1	589301	74.7	220
1	591330	74.9	230
1	593364	75.1	240
1	595282	75.3	250
1	596810	75.5	250
1	596825	75.5	260
1	598863	75.7	270
1	600740	75.9	40
1	602577	76.1	50
1	604107	76.3	60
1	606107	76.5	70
1	607956	76.7	80
1	609418	76.9	90
1	611168	77.1	100
1	613171	77.3	110
1	614627	77.5	120
1	616160	77.7	130
1	618587	77.9	140
1	620396	78.1	150
1	622247	78.3	160
1	624274	78.5	170
1	626063	78.7	180
1	629816	79.107	190
1	629816	79.107	200
1	631175	79.3	210
1	632588	79.5	220
1	634564	79.7	230
1	636813	79.9	240
1	640143	80.305	250
1	640143	80.305	260
1	641767	80.5	260
1	641782	80.5	270
1	643477	80.7	280
1	646022	80.9	40
1	647931	81.1	50
1	649728	81.3	60
1	651507	81.5	70
1	652985	81.7	80
1	654679	81.9	90
1	656730	82.1	100
1	658763	82.3	110
1	660221	82.5	120
1	661935	82.7	130
1	663940	82.9	140
1	666023	83.1	150
1	667800	83.3	160
1	669319	83.5	170
1	673321	83.906	180
1	673321	83.906	190
1	675034	84.1	200
1	676546	84.3	210
1	678502	84.5	220
1	682530	84.909	230
1	682530	84.909	240
1	684027	85.1	250
1	685563	85.3	260
1	687217	85.5	260
1	687232	85.5	270
1	689375	85.7	270
1	693443	86.106	40
1	693443	86.106	50
1	694962	86.3	60
1	696455	86.5	70
1	698437	86.7	80
1	700357	86.9	90
1	701874	87.1	100
1	703549	87.3	110
1	705642	87.5	120
1	707585	87.7	130
1	709370	87.9	140
1	711217	88.1	150
1	713002	88.3	160
1	714783	88.5	170
1	716314	88.7	180
1	718153	88.9	190
1	719916	89.1	200
1	721908	89.3	210
1	723511	89.5	220
1	727359	89.908	230
1	727359	89.908	240
1	728985	90.1	250
1	730571	90.3	260
1	732770	90.5	260
1	732785	90.5	270
1	734485	90.7	280
1	736487	90.9	30
1	738451	91.1	40
1	740234	91.3	50
1	741774	91.5	60
1	743490	91.7	70
1	745419	91.9	80
1	747482	92.1	90
1	749281	92.3	100
1	751062	92.5	110
1	752857	92.7	120
1	754644	92.9	130
1	756475	93.1	140
1	758262	93.3	150
1	759798	93.5	160
1	763889	93.904	170
1	763889	93.904	180
1	765454	94.1	190
1	769075	94.509	200
1	769075	94.509	210
1	770833	94.7	220
1	772682	94.9	230
1	774513	95.1	240
1	777067	95.5	240
1	777665	95.506	250
1	777665	95.506	260
1	779750	95.7	270
1	781800	95.9	40
1	783641	96.1	50
1	785111	96.3	60
1	787053	96.5	70
1	790338	96.905	80
1	790338	96.905	90
1	792192	97.1	100
1	794228	97.3	110
1	796312	97.5	120
1	798103	97.7	130
1	799886	97.9	140
1	801715	98.1	150
1	803500	98.3	160
1	805289	98.5	170
1	809012	98.905	180
1	809012	98.905	190
1	812683	99.31	200
1	814476	99.514	210
1	814476	99.514	220
1	815965	99.7	230
1	817948	99.9	240
1	819785	100.1	250
1	821568	100.3	260
1	823345	100.5	260
1	825499	100.709	10
1	825499	100.709	20
1	826958	100.9	30
1	828853	101.1	40
1	832687	101.507	50
1	832687	101.507	60
1	834180	101.7	70
1	836009	101.9	80
1	837854	102.1	90
1	839645	102.3	100
1	841426	102.5	110
1	843211	102.7	120
1	844996	102.9	130
1	846825	103.1	140
1	848300	103.3	150
1	850286	103.5	160
1	852208	103.7	170
1	853991	103.9	180
1	855577	104.1	190
1	857535	104.3	200
1	859412	104.5	210
1	861203	104.7	220
1	865093	105.107	230
1	865093	105.107	240
1	866578	105.3	250
1	868403	105.5	250
1	868418	105.5	260
1	870271	105.7	270
1	872068	105.9	30
1	873899	106.1	40
1	875684	106.3	50
1	879554	106.709	60
1	879554	106.709	70
1	880995	106.9	80
1	882896	107.1	90
1	884677	107.3	100
1	886474	107.5	110
1	888259	107.7	120
1	890042	107.9	130
1	891871	108.1	140
1	893666	108.3	150
1	895447	108.5	160
1	896661	108.7	170
1	898826	108.9	180
1	900890	109.1	190
1	902360	109.3	200
1	904061	109.5	210
1	908061	109.905	220
1	908061	109.905	230
1	909591	110.1	240
1	911579	110.3	250
1	913521	110.5	250
1	913536	110.5	260
1	915379	110.7	270
1	917172	110.9	30
1	918690	111.1	40
1	922773	111.511	50
1	922773	111.511	60
1	924070	111.7	70
1	925985	111.9	80
1	928072	112.1	90
1	929853	112.3	100
1	931644	112.5	110
1	933115	112.7	120
1	935077	112.9	130
1	937061	113.1	140
1	938850	113.3	150
1	940639	113.5	160
1	942422	113.7	170
1	944209	113.9	180
1	945731	114.1	190
1	947422	114.3	200
1	949546	114.5	210
1	951175	114.7	220
1	953016	114.9	230
1	955089	115.1	240
1	956876	115.3	250
1	958661	115.5	250
1	958676	115.5	260
1	960533	115.7	270
1	962320	115.9	30
1	963893	116.1	40
1	967764	116.684	50
1	967764	116.684	60
1	968090	116.7	70
1	971063	116.9	80
1	973242	117.1	90
1	975023	117.3	100
1	976245	117.5	110
1	978088	117.7	120
1	980182	117.9	130
1	982220	118.1	140
1	984073	118.3	150
1	985852	118.5	160
1	987645	118.7	170
1	989119	118.9	180
1	990870	119.1	190
1	993028	119.3	200
1	994875	119.5	210
1	996656	119.7	220
1	998451	119.9	230
1	1000274	120.1	240
1	1002065	120.3	250
1	1003586	120.5	250
1	1003601	120.5	260
1	1005512	120.7	270
1	1007541	120.9	40
1	1009378	121.1	50
1	1011165	121.3	60
1	1012696	121.5	70
1	1014503	121.7	80
1	1016564	121.9	90
1	1020325	122.305	100
1	1020325	122.305	110
1	1021639	122.5	120
1	1023625	122.7	130
1	1025579	122.9	140
1	1027102	123.1	150
1	1031286	123.509	160
1	1031286	123.509	170
1	1032743	123.7	180
1	1034600	123.9	190
1	1036431	124.1	200
1	1038210	124.3	210
1	1039997	124.5	220
1	1041784	124.7	230
1	1043563	124.9	240
1	1045406	125.1	250
1	1048358	125.5	250
1	1048757	125.512	260
1	1048757	125.512	270
1	1050075	125.7	270
1	1051881	125.9	40
1	1053860	126.1	50
1	1058460	126.505	60
1	1058460	126.505	70
1	1059981	126.7	80
1	1061533	126.9	90
1	1063051	127.1	100
1	1065188	127.3	110
1	1067241	127.5	120
1	1070964	127.906	130
1	1070964	127.906	140
1	1072652	128.1	150
1	1074467	128.3	160
1	1076250	128.5	170
1	1078041	128.7	180
1	1079820	128.9	190
1	1081081	129.1	200
1	1082193	129.3	210
1	1083669	129.5	220
1	1086068	129.7	230
1	1088784	129.9	240
1	1090445	130.1	250
1	1092395	130.3	260
1	1094348	130.5	260
1	1094363	130.5	270
1	1096212	130.7	270
1	1097999	130.9	30
1	1099830	131.1	40
1	1101114	131.3	50
1	1102999	131.5	60
1	1104912	131.7	70
1	1106916	131.9	80
1	1108866	132.1	90
1	1110147	132.3	100
1	1110992	132.5	110
1	1112302	132.7	120
1	1118659	133.415	130
1	1118659	133.415	140
1	1118659	133.415	150
1	1120373	133.5	160
1	1123158	133.7	170
1	1125007	133.9	180
1	1127076	134.1	190
1	1128875	134.3	200
1	1130668	134.5	210
1	1132443	134.7	220
1	1133976	134.9	230
1	1135867	135.1	240
1	1137576	135.3	250
1	1139542	135.5	250
1	1139557	135.5	260
1	1141555	135.7	270
1	1143028	135.9	30
1	1145062	136.1	40
1	1146982	136.3	50
1	1148777	136.5	60
1	1152265	136.908	70
1	1152265	136.908	80
1	1153239	137.1	90
1	1154495	137.3	100
1	1156135	137.5	110
1	1158789	137.7	120
1	1160802	137.9	130
1	1162791	138.1	140
1	1165029	138.3	150
1	1166884	138.5	160
1	1168657	138.7	170
1	1170194	138.9	180
1	1174400	139.309	190
1	1176146	139.518	200
1	1176146	139.518	210
1	1177370	139.7	220
1	1179289	139.9	230
1	1183238	140.305	240
1	1183238	140.305	250
1	1184992	140.5	250
1	1185007	140.5	260
1	1186571	140.7	270
1	1188527	140.9	30
1	1190268	141.1	40
1	1192115	141.3	50
1	1194146	141.5	60
1	1195931	141.7	70
1	1197403	141.9	80
1	1199407	142.1	90
1	1201101	142.3	100
1	1203093	142.5	110
1	1204946	142.7	120
1	1206743	142.9	130
1	1208560	143.1	140
1	1210353	143.3	150
1	1211826	143.5	160
1	1213782	143.7	170
1	1215732	143.9	180
1	1217561	144.1	190
1	1219041	144.3	200
1	1220981	144.5	210
1	1222370	144.7	220
1	1224183	144.9	230
1	1226471	145.1	240
1	1228403	145.3	250
1	1230172	145.5	250
1	1230187	145.5	260
1	1231782	145.7	270
1	1233324	145.9	30
1	1235570	146.1	40
1	1237520	146.3	50
1	1239310	146.5	60
1	1241101	146.7	70
1	1242876	146.9	80
1	1244715	147.1	90
1	1246238	147.3	100
1	1248091	147.5	110
1	1250118	147.7	120
1	1251907	147.9	130
1	1255190	148.307	140
1	1255190	148.307	150
1	1256824	148.5	160
1	1258761	148.7	170
1	1260661	148.9	180
1	1262808	149.1	190
1	1264602	149.3	200
1	1266389	149.5	210
1	1268176	149.7	220
1	1269326	149.9	230
1	1271529	150.1	240
1	1273297	150.3	250
1	1274938	150.5	250
1	1274953	150.5	260
1	1277129	150.7	270
1	1279087	150.9	40
1	1280922	151.1	50
1	1282705	151.3	60
1	1284490	151.5	70
1	1286027	151.7	80
1	1287870	151.9	90
1	1289935	152.1	100
1	1291417	152.3	110
1	1293371	152.5	120
1	1295320	152.7	130
1	1297111	152.9	140
1	1298926	153.1	150
1	1302356	153.508	160
1	1302356	153.508	170
1	1304105	153.7	180
1	1306116	153.9	190
1	1307694	154.1	200
1	1311801	154.506	210
1	1311801	154.506	220
1	1315187	154.911	230
1	1315187	154.911	240
1	1316285	155.1	250
1	1317998	155.3	260
1	1320064	155.5	260
1	1320079	155.5	270
1	1322488	155.7	270
1	1324285	155.9	30
1	1327756	156.311	40
1	1327756	156.311	50
1	1331787	156.708	60
1	1331787	156.708	70
1	1333256	156.9	80
1	1337075	157.305	90
1	1337075	157.305	100
1	1338387	157.5	110
1	1340371	157.7	120
1	1342335	157.9	130
1	1344168	158.1	140
1	1345943	158.3	150
1	1347165	158.5	160
1	1351491	158.907	170
1	1351491	158.907	180
1	1352888	159.1	190
1	1354654	159.3	200
1	1358882	159.708	210
1	1358882	159.708	220
1	1360347	159.9	230
1	1361682	160.1	240
1	1363807	160.3	250
1	1365850	160.5	250
1	1365865	160.5	260
1	1367714	160.7	270
1	1369503	160.9	30
1	1371338	161.1	40
1	1372816	161.3	50
1	1376844	161.706	60
1	1376844	161.706	70
1	1378168	161.9	80
1	1380234	162.1	90
1	1382146	162.3	100
1	1383941	162.5	110
1	1387361	162.908	120
1	1387361	162.908	130
1	1389150	163.1	140
1	1390533	163.3	150
1	1394486	163.705	160
1	1394486	163.705	170
1	1396173	163.9	180
1	1398369	164.1	190
1	1400248	164.3	200
1	1402041	164.5	210
1	1403822	164.7	220
1	1405609	164.9	230
1	1407193	165.1	240
1	1410737	165.5	240
1	1411331	165.506	250
1	1411331	165.506	260
1	1412864	165.7	270
1	1414701	165.9	40
1	1416532	166.1	50
1	1418325	166.3	60
1	1420108	166.5	70
1	1421316	166.7	80
1	1423161	166.9	90
1	1425552	167.1	100
1	1427345	167.3	110
1	1429126	167.5	120
1	1430919	167.7	130
1	1432696	167.9	140
1	1434287	168.1	150
1	1436244	168.3	160
1	1440099	168.712	170
1	1440099	168.712	180
1	1443649	169.107	190
1	1445161	169.318	200
1	1447172	169.523	210
1	1447172	169.523	220
1	1448538	169.7	230
1	1450453	169.9	240
1	1452613	170.1	250
1	1455988	170.5	250
1	1456620	170.51	250
1	1456620	170.51	260
1	1458095	170.7	270
1	1459954	170.9	40
1	1461783	171.1	50
1	1463572	171.3	60
1	1467260	171.705	70
1	1467260	171.705	80
1	1468945	171.9	90
1	1470544	172.1	100
1	1472070	172.3	110
1	1474299	172.5	120
1	1478272	172.904	130
1	1478272	172.904	140
1	1479827	173.1	150
1	1481397	173.3	160
1	1483373	173.5	170
1	1485234	173.7	180
1	1486452	173.9	190
1	1490504	174.31	200
1	1490504	174.31	210
1	1492315	174.5	220
1	1493745	174.7	230
1	1494961	174.9	240
1	1497618	175.1	250
1	1499798	175.3	260
1	1501326	175.5	260
1	1501341	175.5	270
1	1503375	175.7	270
1	1505254	175.9	40
1	1506776	176.1	50
1	1508728	176.3	60
1	1510677	176.5	70
1	1514507	176.905	80
1	1514507	176.905	90
1	1516068	177.1	100
1	1517885	177.3	110
1	1519674	177.5	120
1	1521199	177.7	130
1	1525985	178.281	140
1	1525985	178.281	150
1	1526361	178.3	160
1	1528720	178.5	170
1	1530547	178.7	180
1	1532342	178.9	190
1	1534165	179.1	200
1	1535948	179.3	210
1	1537415	179.5	220
1	1539391	179.7	230
1	1542881	180.104	240
1	1542881	180.104	250
1	1544813	180.3	260
1	1546215	180.5	260
1	1546230	180.5	270
1	1548467	180.7	280
1	1552570	181.107	40
1	1552570	181.107	50
1	1554069	181.3	60
1	1555888	181.5	70
1	1557367	181.7	80
1	1559353	181.9	90
1	1561319	182.1	100
1	1563102	182.3	110
1	1564895	182.5	120
1	1566684	182.7	130
1	1568477	182.9	140
1	1570306	183.1	150
1	1572089	183.3	160
1	1573621	183.5	170
1	1575577	183.7	180
1	1577462	183.9	190
1	1578716	184.1	200
1	1580567	184.3	210
1	1582656	184.5	220
1	1584495	184.7	230
1	1586217	184.9	240
1	1587736	185.1	250
1	1590170	185.3	260
1	1591957	185.5	260
1	1591972	185.5	270
1	1593567	185.7	280
1	1595170	185.9	30
1	1597427	186.1	40
1	1599304	186.3	50
1	1601089	186.5	60
1	1602627	186.7	70
1	1604599	186.9	80
1	1608551	187.306	90
1	1608551	187.306	100
1	1610066	187.5	110
1	1611893	187.7	120
1	1613678	187.9	130
1	1615197	188.1	140
1	1617179	188.3	150
1	1619101	188.5	160
1	1620637	188.7	170
1	1622302	188.9	180
1	1624131	189.1	190
1	1626285	189.3	200
1	1628142	189.5	210
1	1629923	189.7	220
1	1631712	189.9	230
1	1633545	190.1	240
1	1636615	190.5	240
1	1637088	190.506	250
1	1637088	190.506	260
1	1640860	190.906	30
1	1642435	191.112	40
1	1642435	191.112	50
1	1643986	191.3	60
1	1645888	191.5	70
1	1647416	191.7	80
1	1649402	191.9	90
1	1651650	192.1	100
1	1653623	192.3	110
1	1655082	192.5	120
1	1656823	192.7	130
1	1658729	192.9	140
1	1660609	193.1	150
1	1662376	193.3	160
1	1664477	193.5	170
1	1666264	193.7	180
1	1668057	193.9	190
1	1669890	194.1	200
1	1671669	194.3	210
1	1673458	194.5	220
1	1675249	194.7	230
1	1676777	194.9	240
1	1678469	195.1	250
1	1680558	195.3	260
1	1682461	195.5	260
1	1684585	195.706	260
1	1684585	195.706	270
1	1686098	195.9	30
1	1687967	196.1	40
1	1689442	196.3	50
1	1694000	196.877	60
1	1694000	196.877	70
1	1694383	196.9	80
1	1696359	197.1	90
1	1698401	197.3	100
1	1700507	197.5	110
1	1702198	197.7	120
1	1704035	197.9	130
1	1706110	198.1	140
1	1707907	198.3	150
1	1709692	198.5	160
1	1711479	198.7	170
1	1712956	198.9	180
1	1714976	199.1	190
1	1716898	199.3	200
1	1718430	199.5	210
1	1720093	199.7	220
1	1722131	199.9	230
1	1723816	200.1	240
1	1725775	200.3	250
1	1727704	200.5	250
1	1727719	200.5	260
1	1729568	200.7	270
1	1731122	200.9	30
1	1735207	201.313	40
1	1735207	201.313	50
1	1736488	201.5	60
1	1738391	201.7	70
1	1739913	201.9	80
1	1741848	202.1	90
1	1744091	202.3	100
1	1745876	202.5	110
1	1747348	202.7	120
1	1749046	202.9	130
1	1750849	203.1	140
1	1752753	203.3	150
1	1754550	203.5	160
1	1756692	203.7	170
1	1757980	203.9	180
1	1759305	204.1	190
1	1761938	204.3	200
1	1766074	204.704	210
1	1766074	204.704	220
1	1767609	204.9	230
1	1769462	205.1	240
1	1772719	205.5	240
1	1773315	205.505	250
1	1773315	205.505	260
1	1774878	205.7	270
1	1776695	205.9	40
1	1778534	206.1	50
1	1780317	206.3	60
1	1784009	206.704	70
1	1784009	206.704	80
1	1785600	206.9	90
1	1787292	207.1	100
1	1788939	207.3	110
1	1790952	207.5	120
1	1792944	207.7	130
1	1796504	208.109	140
1	1796504	208.109	150
1	1798031	208.3	160
1	1800063	208.5	170
1	1801696	208.7	180
1	1805465	209.104	190
1	1805465	209.104	200
1	1807284	209.3	210
1	1809255	209.5	220
1	1811040	209.7	230
1	1812520	209.9	240
1	1814512	210.1	250
1	1816139	210.3	260
1	1818085	210.5	260
1	1818100	210.5	270
1	1820130	210.7	270
1	1821610	210.9	30
1	1823616	211.1	40
1	1825559	211.3	50
1	1827097	211.5	60
1	1829067	211.7	70
1	1830944	211.9	80
1	1832777	212.1	90
1	1834564	212.3	100
1	1836339	212.5	110
1	1838144	212.7	120
1	1839927	212.9	130
1	1841762	213.1	140
1	1843230	213.3	150
1	1845178	213.5	160
1	1847125	213.7	170
1	1848926	213.9	180
1	1850747	214.1	190
1	1852534	214.3	200
1	1854069	214.5	210
1	1855910	214.7	220
1	1857685	214.9	230
1	1859574	215.1	240
1	1861605	215.3	250
1	1863386	215.5	250
1	1863401	215.5	260
1	1865246	215.7	270
1	1867043	215.9	30
1	1868876	216.1	40
1	1870655	216.3	50
1	1872136	216.5	60
1	1874086	216.7	70
1	1876032	216.9	80
1	1877861	217.1	90
1	1879340	217.3	100
1	1881292	217.5	110
1	1883248	217.7	120
1	1885037	217.9	130
1	1886868	218.1	140
1	1888655	218.3	150
1	1890433	218.5	160
1	1891650	218.7	170
1	1893493	218.9	180
1	1895892	219.1	190
1	1897685	219.3	200
1	1901101	219.709	210
1	1901101	219.709	220
1	1902609	219.9	230
1	1904527	220.1	240
1	1906716	220.3	250
1	1908503	220.5	250
1	1908518	220.5	260
1	1910367	220.7	270
1	1912158	220.9	30
1	1913669	221.1	40
1	1914880	221.3	50
1	1916856	221.5	60
1	1919407	221.7	70
1	1921202	221.9	80
1	1923037	222.1	90
1	1924822	222.3	100
1	1926287	222.5	110
1	1928273	222.7	120
1	1929944	222.9	130
1	1931954	223.1	140
1	1933843	223.3	150
1	1937447	223.708	160
1	1937447	223.708	170
1	1938572	223.9	180
1	1940845	224.1	190
1	1942548	224.3	200
1	1944205	224.5	210
1	1946294	224.7	220
1	1948259	224.9	230
1	1949767	225.1	240
1	1953056	225.5	240
1	1953557	225.509	250
1	1953557	225.509	260
1	1955334	225.7	270
1	1957365	225.9	40
1	1959198	226.1	50
1	1962469	226.504	60
1	1962469	226.504	70
1	1964087	226.7	80
1	1966233	226.9	90
1	1969792	227.309	100
1	1969792	227.309	110
1	1971263	227.5	120
1	1973025	227.7	130
1	1975237	227.9	140
1	1977067	228.1	150
1	1981124	228.505	160
1	1981124	228.505	170
1	1982709	228.7	180
1	1984536	228.9	190
1	1986363	229.1	200
1	1988154	229.3	210
1	1989941	229.5	220
1	1991722	229.7	230
1	1993196	229.9	240
1	1995190	230.1	250
1	1998497	230.5	250
1	1999121	230.51	260
1	1999121	230.51	270
1	2000766	230.7	270
1	2002623	230.9	40
1	2004464	231.1	50
1	2005991	231.3	60
1	2007750	231.5	70
1	2009553	231.7	80
1	2011510	231.9	90
1	2013499	232.1	100
1	2015300	232.3	110
1	2017075	232.5	120
1	2018874	232.7	130
1	2020657	232.9	140
1	2022482	233.1	150
1	2024275	233.3	160
1	2026060	233.5	170
1	2027536	233.7	180
1	2031312	234.107	190
1	2031312	234.107	200
1	2033121	234.3	210
1	2034835	234.5	220
1	2036686	234.7	230
1	2038707	234.9	240
1	2040546	235.1	250
1	2042331	235.3	260
1	2043788	235.5	260
1	2045687	235.704	260
1	2045687	235.704	270
1	2047613	235.9	40
1	2049380	236.1	50
1	2050973	236.3	60
1	2052569	236.5	70
1	2054774	236.7	80
1	2056896	236.9	90
1	2058731	237.1	100
1	2062121	237.504	110
1	2062121	237.504	120
1	2063697	237.7	130
1	2065529	237.9	140
1	2067766	238.1	150
1	2069551	238.3	160
1	2071350	238.5	170
1	2073137	238.7	180
1	2074924	238.9	190
1	2076755	239.1	200
1	2078546	239.3	210
1	2080014	239.5	220
1	2081737	239.7	230
1	2083533	239.9	240
1	2085788	240.1	250
1	2087573	240.3	260
1	2089093	240.5	260
1	2089108	240.5	270
1	2091166	240.7	270
1	2093021	240.9	40
1	2094540	241.1	50
1	2096528	241.3	60
1	2097939	241.5	70
1	2099766	241.7	80
1	2102061	241.9	90
1	2103898	242.1	100
1	2105679	242.3	110
1	2107470	242.5	120
1	2108681	242.7	130
1	2112720	243.105	140
1	2112720	243.105	150
1	2114561	243.3	160
1	2116247	243.5	170
1	2118102	243.7	180
1	2120131	243.9	190
1	2121966	244.1	200
1	2123745	244.3	210
1	2125538	244.5	220
1	2127325	244.7	230
1	2129116	244.9	240
1	2130941	245.1	250
1	2132728	245.3	260
1	2134252	245.5	260
1	2134267	245.5	270
1	2136295	245.7	280
1	2138186	245.9	40
1	2139701	246.1	50
1	2143246	246.508	60
1	2143246	246.508	70
1	2144660	246.7	80
1	2146551	246.9	90
1	2148620	247.1	100
1	2150266	247.3	110
1	2151824	247.5	120
1	2154160	247.7	130
1	2156400	247.9	140
1	2157986	248.1	150
1	2159391	248.3	160
1	2161609	248.5	170
1	2163654	248.7	180
1	2165451	248.9	190
1	2167278	249.1	200
1	2169069	249.3	210
1	2170848	249.5	220
1	2172643	249.7	230
1	2174432	249.9	240
1	2176253	250.1	250
1	2177407	250.3	260
1	2179040	250.5	260
1	2179055	250.5	270
1	2181044	250.7	280
1	2182922	250.9	40
1	2184449	251.1	50
1	2186326	251.3	60
1	2191168	251.713	70
1	2191168	251.713	80
1	2192583	251.9	90
1	2194500	252.1	100
1	2195964	252.3	110
1	2197687	252.5	120
1	2199487	252.7	130
1	2201377	252.9	140
1	2203401	253.1	150
1	2205036	253.3	160
1	2206773	253.5	170
1	2208473	253.7	180
1	2209865	253.9	190
1	2211813	254.1	200
1	2213979	254.3	210
1	2216072	254.5	220
1	2218075	254.7	230
1	2219615	254.9	240
1	2221617	255.1	250
[...]
4	2888635	328.794	170
4	2888635	328.794	180
4	2889314	328.9	190
4	2891274	329.1	200
4	2893114	329.3	210
4	2894815	329.5	220
4	2897042	329.7	230
4	2898867	329.9	240
4	2900401	330.1	250
4	2902477	330.3	260
4	2904280	330.5	260
4	2904295	330.5	270
4	2906142	330.7	270
4	2910094	331.198	30
4	2912145	331.493	40
4	2912145	331.493	50
4	2912418	331.5	60
4	2914962	331.7	70
4	2916361	331.9	80
4	2918301	332.1	90
4	2922804	332.595	100
4	2922804	332.595	110
4	2926950	332.994	120
4	2926950	332.994	130
4	2927738	333.1	140
4	2929741	333.3	150
4	2930967	333.5	160
4	2932628	333.7	170
4	2935074	333.9	180
4	2937003	334.1	190
4	2938483	334.3	200
4	2940433	334.5	210
4	2941779	334.7	220
4	2943673	334.9	230
4	2945925	335.1	240
4	2947853	335.3	250
4	2949638	335.5	250
4	2949653	335.5	260
4	2951486	335.7	270
4	2952724	335.9	30
4	2954951	336.1	40
4	2956622	336.3	50
4	2958268	336.5	60
4	2960397	336.7	70
4	2962330	336.9	80
4	2964179	337.1	90
4	2965663	337.3	100
4	2967482	337.5	110
4	2969153	337.7	120
4	2971213	337.9	130
4	2972884	338.1	140
4	2974834	338.3	150
4	2976545	338.5	160
4	2978503	338.7	170
4	2980384	338.9	180
4	2981924	339.1	190
4	2983703	339.3	200
4	2985174	339.5	210
4	2987092	339.7	220
4	2989148	339.9	230
4	2990907	340.1	240
4	2992635	340.3	250
4	2994771	340.5	250
4	2994786	340.5	260
4	2996770	340.7	270
4	2998577	340.9	30
4	3000402	341.1	40
4	3002189	341.3	50
4	3003980	341.5	60
4	3005767	341.7	70
4	3007554	341.9	80
4	3009094	342.1	90
4	3011160	342.3	100
4	3012981	342.5	110
4	3014764	342.7	120
4	3016545	342.9	130
4	3018384	343.1	140
4	3021774	343.612	150
4	3021774	343.612	160
4	3026514	344.001	170
4	3026514	344.001	180
4	3027207	344.1	190
4	3029240	344.3	200
4	3031023	344.5	210
4	3034393	344.995	220
4	3034393	344.995	230
4	3035377	345.1	240
4	3037225	345.3	250
4	3039483	345.5	250
4	3041738	345.793	10
4	3041738	345.793	20
4	3043006	345.9	30
4	3048249	346.393	40
4	3050339	346.687	50
4	3050339	346.687	60
4	3050692	346.7	70
4	3052527	346.9	80
4	3054542	347.1	90
4	3056479	347.3	100
4	3058278	347.5	110
4	3060071	347.7	120
4	3061856	347.9	130
4	3063683	348.1	140
4	3065470	348.3	150
4	3069897	348.794	160
4	3069897	348.794	170
4	3070631	348.9	180
4	3072712	349.1	190
4	3074497	349.3	200
4	3076280	349.5	210
4	3077204	349.7	220
4	3079282	349.9	230
4	3081618	350.1	240
4	3083538	350.3	250
4	3085000	350.5	250
4	3085015	350.5	260
4	3087033	350.7	270
4	3088990	350.9	40
4	3090513	351.1	50
4	3092493	351.3	60
4	3093793	351.5	70
4	3096044	351.7	80
4	3098021	351.9	90
4	3099525	352.1	100
4	3101202	352.3	110
4	3103424	352.5	120
4	3107913	352.995	130
4	3107913	352.995	140
4	3111388	353.397	150
4	3111388	353.397	160
4	3112051	353.5	170
4	3114284	353.7	180
4	3115844	353.9	190
4	3117956	354.1	200
4	3121877	354.593	210
4	3123799	354.886	220
4	3123799	354.886	230
4	3124144	354.9	240
4	3129218	355.401	250
4	3129958	355.5	250
4	3131946	355.696	250
4	3131946	355.696	260
4	3132225	355.7	270
4	3134298	355.9	40
4	3135972	356.1	50
4	3137966	356.3	60
4	3141737	356.796	70
4	3141737	356.796	80
4	3142669	356.9	90
4	3145140	357.1	100
4	3146765	357.3	110
4	3148472	357.5	120
4	3150380	357.7	130
4	3152437	357.9	140
4	3154336	358.1	150
4	3155511	358.3	160
4	3157678	358.5	170
4	3159723	358.7	180
4	3161518	358.9	190
4	3163345	359.1	200
4	3164879	359.3	210
4	3166541	359.5	220
4	3168320	359.7	230
4	3170491	359.9	240
4	3172117	360.1	250
4	3174107	360.3	260
4	3175663	360.5	260
4	3175678	360.5	270
4	3177768	360.7	270
4	3181926	361.272	40
4	3181926	361.272	50
4	3182331	361.3	60
4	3184723	361.5	70
4	3186515	361.7	80
4	3188544	361.9	90
4	3190280	362.1	100
4	3192276	362.3	110
4	3193816	362.5	120
4	3195770	362.7	130
4	3200196	363.195	140
4	3200196	363.195	150
4	3203505	363.594	160
4	3203505	363.594	170
4	3204463	363.7	180
4	3206806	363.9	190
4	3208637	364.1	200
4	3210426	364.3	210
4	3212211	364.5	220
4	3213749	364.7	230
4	3218278	365.195	240
4	3218278	365.195	250
4	3218931	365.3	260
4	3221234	365.5	260
4	3221249	365.5	270
4	3225553	365.997	20
4	3225553	365.997	30
4	3226239	366.1	40
4	3228119	366.3	50
4	3230245	366.5	60
4	3232205	366.7	70
4	3233980	366.9	80
4	3235823	367.1	90
4	3237604	367.3	100
4	3239387	367.5	110
4	3240614	367.7	120
4	3242741	367.9	130
4	3244832	368.1	140
4	3246621	368.3	150
4	3248402	368.5	160
4	3249871	368.7	170
4	3251865	368.9	180
4	3253833	369.1	190
4	3255298	369.3	200
4	3257290	369.5	210
4	3259208	369.7	220
4	3260993	369.9	230
4	3262511	370.1	240
4	3264463	370.3	250
4	3265852	370.5	250
4	3265867	370.5	260
4	3267873	370.7	270
4	3269704	370.9	40
4	3271565	371.1	50
4	3273775	371.3	60
4	3275562	371.5	70
4	3277339	371.7	80
4	3278818	371.9	90
4	3283629	372.394	100
4	3283629	372.394	110
4	3284351	372.5	120
4	3286388	372.7	130
4	3288175	372.9	140
4	3290010	373.1	150
4	3291490	373.3	160
4	3293264	373.5	170
4	3295339	373.7	180
4	3296559	373.9	190
4	3298465	374.1	200
4	3303504	374.596	210
4	3306591	375.036	220
4	3306591	375.036	230
4	3309945	375.331	240
4	3309945	375.331	250
4	3309945	375.331	260
4	3311373	375.5	260
4	3311388	375.5	270
4	3313507	375.7	270
4	3315475	375.9	40
4	3317306	376.1	50
4	3318834	376.3	60
4	3320792	376.5	70
4	3322681	376.7	80
4	3324470	376.9	90
4	3326305	377.1	100
4	3328080	377.3	110
4	3329881	377.5	120
4	3331658	377.7	130
4	3333447	377.9	140
4	3335286	378.1	150
4	3337063	378.3	160
4	3338854	378.5	170
4	3340639	378.7	180
4	3342169	378.9	190
4	3343949	379.1	200
4	3345992	379.3	210
4	3347877	379.5	220
4	3349664	379.7	230
4	3351137	379.9	240
4	3355950	380.396	250
4	3355950	380.396	260
4	3356664	380.5	260
4	3356679	380.5	270
4	3358782	380.7	280
4	3360567	380.9	30
4	3362109	381.1	40
4	3363825	381.3	50
4	3365851	381.5	60
4	3367789	381.7	70
4	3369590	381.9	80
4	3371411	382.1	90
4	3373202	382.3	100
4	3374989	382.5	110
4	3376525	382.7	120
4	3378513	382.9	130
4	3380406	383.1	140
4	3381880	383.3	150
4	3383836	383.5	160
4	3384860	383.7	170
4	3387237	383.9	180
4	3389450	384.1	190
4	3391246	384.3	200
4	3393039	384.5	210
4	3394826	384.7	220
4	3396611	384.9	230
4	3397878	385.1	240
4	3400005	385.3	250
4	3402034	385.5	250
4	3402049	385.5	260
4	3403908	385.7	270
4	3405705	385.9	30
4	3407534	386.1	40
4	3409000	386.3	50
4	3410964	386.5	60
4	3412905	386.7	70
4	3414376	386.9	80
4	3416378	387.1	90
4	3418332	387.3	100
4	3420119	387.5	110
4	3421904	387.7	120
4	3423078	387.9	130
4	3425351	388.1	140
4	3427347	388.3	150
4	3429130	388.5	160
4	3430601	388.7	170
4	3432551	388.9	180
4	3434553	389.1	190
4	3436332	389.3	200
4	3438131	389.5	210
4	3439912	389.7	220
4	3441697	389.9	230
4	3443536	390.1	240
4	3446524	390.5	240
4	3448606	390.89	10
4	3448606	390.89	20
4	3448606	390.89	30
4	3449021	390.9	40
4	3454785	391.395	50
4	3454785	391.395	60
4	3455417	391.5	70
4	3457854	391.7	80
4	3459556	391.9	90
4	3461267	392.1	100
4	3463196	392.3	110
4	3464624	392.5	120
4	3469880	393.008	130
4	3469880	393.008	140
4	3470533	393.1	150
4	3472596	393.3	160
4	3474373	393.5	170
4	3475921	393.7	180
4	3477875	393.9	190
4	3479806	394.1	200
4	3480667	394.3	210
4	3483109	394.5	220
4	3485219	394.7	230
4	3487007	394.9	240
4	3488542	395.1	250
4	3492161	395.5	250
4	3493372	395.602	260
4	3493372	395.602	270
4	3496989	395.995	30
4	3496989	395.995	40
4	3500758	396.452	50
4	3500758	396.452	60
4	3501279	396.5	70
4	3503398	396.7	80
4	3505183	396.9	90
4	3508590	397.395	100
4	3508590	397.395	110
4	3509448	397.5	120
4	3514535	397.993	130
4	3514535	397.993	140
4	3515225	398.1	150
4	3517395	398.3	160
4	3519589	398.5	170
4	3521161	398.7	180
4	3522809	398.9	190
4	3525003	399.1	200
4	3526913	399.3	210
4	3528071	399.5	220
4	3529700	399.7	230
4	3531626	399.9	240
4	3534117	400.1	250
4	3537224	400.5	250
4	3537981	400.603	250
4	3537981	400.603	260
4	3538739	400.7	270
4	3543787	401.196	40
4	3543787	401.196	50
4	3544387	401.3	60
4	3549497	401.802	70
4	3549497	401.802	80
4	3550152	401.9	90
4	3552429	402.1	100
4	3554298	402.3	110
4	3556079	402.5	120
4	3560365	403.003	130
4	3562116	403.299	140
4	3562116	403.299	150
4	3562371	403.3	160
4	3564880	403.5	170
4	3566933	403.7	180
4	3570662	404.193	190
4	3570662	404.193	200
4	3571631	404.3	210
4	3574138	404.5	220
4	3575694	404.7	230
4	3577762	404.9	240
4	3579625	405.1	250
4	3581416	405.3	260
4	3583185	405.5	260
4	3585411	405.797	10
4	3585411	405.797	20
4	3586433	405.9	30
4	3588724	406.1	40
4	3590511	406.3	50
4	3592300	406.5	60
4	3594085	406.7	70
4	3595297	406.9	80
4	3597502	407.1	90
4	3598953	407.3	100
4	3601093	407.5	110
4	3602883	407.7	120
4	3604841	407.9	130
4	3606199	408.1	140
4	3608388	408.3	150
4	3613036	408.796	160
4	3615172	409.09	170
4	3615172	409.09	180
4	3615507	409.1	190
4	3620189	409.632	200
4	3620189	409.632	210
4	3620670	409.7	220
4	3622950	409.9	230
4	3624952	410.1	240
4	3626492	410.3	250
4	3628141	410.5	250
4	3628156	410.5	260
4	3630378	410.7	270
4	3631922	410.9	40
4	3634000	411.1	50
4	3635851	411.3	60
4	3637640	411.5	70
4	3639419	411.7	80
4	3641216	411.9	90
4	3643051	412.1	100
4	3644581	412.3	110
4	3649263	412.793	120
4	3649263	412.793	130
4	3650007	412.9	140
4	3652088	413.1	150
4	3653873	413.3	160
4	3655658	413.5	170
4	3657443	413.7	180
4	3658941	413.9	190
4	3661047	414.1	200
4	3662868	414.3	210
4	3664659	414.5	220
4	3666450	414.7	230
4	3668225	414.9	240
4	3670066	415.1	250
4	3671839	415.3	260
4	3673369	415.5	260
4	3673384	415.5	270
4	3675119	415.7	270
4	3677283	415.9	40
4	3679152	416.1	50
4	3682311	416.6	60
4	3682311	416.6	70
4	3687299	417.005	80
4	3687299	417.005	90
4	3687980	417.1	100
4	3689483	417.3	110
4	3691379	417.5	120
4	3696313	417.994	130
4	3696313	417.994	140
4	3697097	418.1	150
4	3699128	418.3	160
4	3700905	418.5	170
4	3702688	418.7	180
4	3704479	418.9	190
4	3706308	419.1	200
4	3707485	419.3	210
4	3709206	419.5	220
4	3711285	419.7	230
4	3713014	419.9	240
4	3714744	420.1	250
4	3717046	420.3	260
4	3719057	420.5	260
4	3719072	420.5	270
4	3720927	420.7	270
4	3722403	420.9	30
4	3724405	421.1	40
4	3729026	421.597	50
4	3729026	421.597	60
4	3729752	421.7	70
4	3731775	421.9	80
4	3733303	422.1	90
4	3738061	422.594	100
4	3738061	422.594	110
4	3738795	422.7	120
4	3740816	422.9	130
4	3742354	423.1	140
4	3744404	423.3	150
4	3746241	423.5	160
4	3747727	423.7	170
4	3749451	423.9	180
4	3751230	424.1	190
4	3753459	424.3	200
4	3755280	424.5	210
4	3757063	424.7	220
4	3758850	424.9	230
4	3760386	425.1	240
4	3762461	425.3	250
4	3764271	425.5	250
4	3764287	425.5	260
4	3766129	425.7	270
4	3767928	425.9	30
4	3769439	426.1	40
4	3771425	426.3	50
4	3773090	426.5	60
4	3777808	426.997	70
4	3777808	426.997	80
4	3778562	427.1	90
4	3780593	427.3	100
4	3782068	427.5	110
4	3784060	427.7	120
4	3785970	427.9	130
4	3790457	428.394	140
4	3790457	428.394	150
4	3791197	428.5	160
4	3792983	428.7	170
4	3794971	428.9	180
4	3796868	429.1	190
4	3798651	429.3	200
4	3803084	429.795	210
4	3803084	429.795	220
4	3803816	429.9	230
4	3808566	430.404	240
4	3808566	430.404	250
4	3809247	430.5	250
4	3809262	430.5	260
4	3811363	430.7	270
4	3813154	430.9	30
4	3814975	431.1	40
4	3816768	431.3	50
4	3818565	431.5	60
4	3820338	431.7	70
4	3822133	431.9	80
4	3823101	432.1	90
4	3828485	432.599	100
4	3828485	432.599	110
4	3829205	432.7	120
4	3831236	432.9	130
4	3833061	433.1	140
4	3834850	433.3	150
4	3836641	433.5	160
4	3838426	433.7	170
4	3839899	433.9	180
4	3841929	434.1	190
4	3843851	434.3	200
4	3845640	434.5	210
4	3847431	434.7	220
4	3849210	434.9	230
4	3850725	435.1	240
4	3852715	435.3	250
4	3854623	435.5	250
4	3854638	435.5	260
4	3856485	435.7	270
4	3858290	435.9	30
4	3860123	436.1	40
4	3861906	436.3	50
4	3863685	436.5	60
4	3867903	436.995	70
4	3867903	436.995	80
4	3868604	437.1	90
4	3870885	437.3	100
4	3872730	437.5	110
4	3874195	437.7	120
4	3876183	437.9	130
4	3880276	438.398	140
4	3880276	438.398	150
4	3881214	438.5	160
4	3883561	438.7	170
4	3885350	438.9	180
4	3887183	439.1	190
4	3888972	439.3	200
4	3890753	439.5	210
4	3895194	439.998	220
4	3895194	439.998	230
4	3895966	440.1	240
4	3897991	440.3	250
4	3899764	440.5	250
4	3899779	440.5	260
4	3901013	440.7	270
4	3903276	440.9	30
4	3905286	441.1	40
4	3907067	441.3	50
4	3908613	441.5	60
4	3910054	441.7	70
4	3912141	441.9	80
4	3914287	442.1	90
4	3916152	442.3	100
4	3917939	442.5	110
4	3919728	442.7	120
4	3921515	442.9	130
4	3923344	443.1	140
4	3925139	443.3	150
4	3926914	443.5	160
4	3931359	443.994	170
4	3933228	444.288	180
4	3933228	444.288	190
4	3933557	444.3	200
4	3935984	444.5	210
4	3937553	444.7	220
4	3941902	445.196	230
4	3941902	445.196	240
4	3944456	445.5	240
4	3945308	445.597	250
4	3945308	445.597	260
4	3946152	445.7	270
4	3950495	446.194	40
4	3950495	446.194	50
4	3951757	446.3	60
4	3954312	446.5	70
4	3958201	446.996	80
4	3959903	447.29	90
4	3959903	447.29	100
4	3960194	447.3	110
4	3962830	447.5	120
4	3964879	447.7	130
4	3966829	447.9	140
4	3970735	448.394	150
4	3973027	448.696	160
4	3973027	448.696	170
4	3973302	448.7	180
4	3975518	448.9	190
4	3977480	449.1	200
4	3979552	449.3	210
4	3981534	449.5	220
4	3983319	449.7	230
4	3985110	449.9	240
4	3986947	450.1	250
4	3988728	450.3	260
4	3990503	450.5	260
4	3990518	450.5	270
4	3992361	450.7	270
4	3993849	450.9	30
4	3995514	451.1	40
4	3997685	451.3	50
4	3999318	451.5	60
4	4001062	451.7	70
4	4003064	451.9	80
4	4004727	452.1	90
4	4006475	452.3	100
4	4008590	452.5	110
4	4010156	452.7	120
4	4012206	452.9	130
4	4014087	453.1	140
4	4015874	453.3	150
4	4017657	453.5	160
4	4019440	453.7	170
4	4020915	453.9	180
4	4022959	454.1	190
4	4024550	454.3	200
4	4029336	454.798	210
4	4029336	454.798	220
4	4030054	454.9	230
4	4031805	455.1	240
4	4033512	455.3	250
4	4035332	455.5	250
4	4035347	455.5	260
4	4037447	455.7	270
4	4039396	455.9	40
4	4040934	456.1	50
4	4044601	456.594	60
4	4044601	456.594	70
4	4049299	456.995	80
4	4049299	456.995	90
4	4050073	457.1	100
4	4052100	457.3	110
4	4053893	457.5	120
4	4055670	457.7	130
4	4057467	457.9	140
4	4059288	458.1	150
4	4060456	458.3	160
4	4062597	458.5	170
4	4064683	458.7	180
4	4068409	459.199	190
4	4068409	459.199	200
4	4068945	459.3	210
4	4071576	459.5	220
4	4072870	459.7	230
4	4075096	459.9	240
4	4077039	460.1	250
4	4078824	460.3	260
4	4080671	460.5	260
4	4080686	460.5	270
4	4082567	460.7	270
4	4084659	460.9	40
4	4086248	461.1	50
4	4087935	461.3	60
4	4089757	461.5	70
4	4091915	461.7	80
4	4093450	461.9	90
4	4095472	462.1	100
4	4097402	462.3	110
4	4099191	462.5	120
4	4100966	462.7	130
4	4102468	462.9	140
4	4104576	463.1	150
4	4106399	463.3	160
4	4107873	463.5	170
4	4112637	463.993	180
4	4112637	463.993	190
4	4113427	464.1	200
4	4115458	464.3	210
4	4117243	464.5	220
4	4118709	464.7	230
4	4120414	464.9	240
4	4122598	465.1	250
4	4123840	465.3	260
4	4125939	465.5	260
4	4125954	465.5	270
4	4128140	465.7	270
4	4129937	465.9	30
4	4131770	466.1	40
4	4133555	466.3	50
4	4135338	466.5	60
4	4137123	466.7	70
4	4138600	466.9	80
4	4140607	467.1	90
4	4142552	467.3	100
4	4144347	467.5	110
4	4146118	467.7	120
4	4147919	467.9	130
4	4149742	468.1	140
4	4154181	468.597	150
4	4154181	468.597	160
4	4154913	468.7	170
4	4156936	468.9	180
4	4158759	469.1	190
4	4160301	469.3	200
4	4165019	469.799	210
4	4165019	469.799	220
4	4165735	469.9	230
4	4169940	470.394	240
4	4169940	470.394	250
4	4170880	470.5	250
4	4170895	470.5	260
4	4173308	470.7	270
4	4175101	470.9	30
4	4176938	471.1	40
4	4178721	471.3	50
4	4180510	471.5	60
4	4182048	471.7	70
4	4184006	471.9	80
4	4185931	472.1	90
4	4187718	472.3	100
4	4189511	472.5	110
4	4194023	473.005	120
4	4194023	473.005	130
4	4194696	473.1	140
4	4196745	473.3	150
4	4198202	473.5	160
4	4199957	473.7	170
4	4202068	473.9	180
4	4203975	474.1	190
4	4205756	474.3	200
4	4207549	474.5	210
4	4209328	474.7	220
4	4210807	474.9	230
4	4212805	475.1	240
4	4214500	475.3	250
4	4216454	475.5	250
4	4216469	475.5	260
4	4218408	475.7	270
4	4220201	475.9	30
4	4221712	476.1	40
4	4223375	476.3	50
4	4225291	476.5	60
4	4227281	476.7	70
4	4228923	476.9	80
4	4230607	477.1	90
4	4232474	477.3	100
4	4234633	477.5	110
4	4236480	477.7	120
4	4237954	477.9	130
4	4239954	478.1	140
4	4241585	478.3	150
4	4243554	478.5	160
4	4245495	478.7	170
4	4246734	478.9	180
4	4248476	479.1	190
4	4250427	479.3	200
4	4252476	479.5	210
4	4257296	479.996	220
4	4257296	479.996	230
4	4258072	480.1	240
4	4260089	480.3	250
4	4261625	480.5	250
4	4261640	480.5	260
4	4263692	480.7	270
4	4265549	480.9	40
4	4267382	481.1	50
4	4268914	481.3	60
4	4273108	481.804	70
4	4273108	481.804	80
4	4273705	481.9	90
4	4275949	482.1	100
4	4278145	482.3	110
4	4280030	482.5	120
4	4281821	482.7	130
4	4283606	482.9	140
4	4285130	483.1	150
4	4287086	483.3	160
4	4289023	483.5	170
4	4290816	483.7	180
4	4295328	484.204	190
4	4295328	484.204	200
4	4296017	484.3	210
4	4298044	484.5	220
4	4299835	484.7	230
4	4301628	484.9	240
4	4303457	485.1	250
4	4306445	485.5	250
4	4307397	485.594	260
4	4307397	485.594	270
4	4308051	485.7	270
4	4310195	485.9	40
4	4312516	486.1	50
4	4314364	486.3	60
4	4316153	486.5	70
4	4317625	486.7	80
4	4319267	486.9	90
4	4321457	487.1	100
4	4323375	487.3	110
4	4325168	487.5	120
4	4326951	487.7	130
4	4328423	487.9	140
4	4330421	488.1	150
4	4332380	488.3	160
4	4334161	488.5	170
4	4335950	488.7	180
4	4337733	488.9	190
4	4339259	489.1	200
4	4344017	489.595	210
4	4346101	489.888	220
4	4346101	489.888	230
4	4346452	489.9	240
4	4348647	490.1	250
4	4350434	490.3	260
4	4351960	490.5	260
4	4351975	490.5	270
4	4353995	490.7	270
4	4355882	490.9	40
4	4357727	491.1	50
4	4359196	491.3	60
4	4361148	491.5	70
4	4362552	491.7	80
4	4364785	491.9	90
4	4368851	492.394	100
4	4368851	492.394	110
4	4369809	492.5	120
4	4372150	492.7	130
4	4373937	492.9	140
4	4375461	493.1	150
4	4379994	493.596	160
4	4379994	493.596	170
4	4380642	493.7	180
4	4382832	493.9	190
4	4384827	494.1	200
4	4386303	494.3	210
4	4388263	494.5	220
4	4389911	494.7	230
4	4391698	494.9	240
4	4393790	495.1	250
4	4395643	495.3	260
4	4397430	495.5	260
4	4397445	495.5	270
4	4399290	495.7	270
4	4400769	495.9	30
4	4405645	496.401	40
4	4405645	496.401	50
4	4406346	496.5	60
4	4411017	496.995	70
4	4411017	496.995	80
4	4411797	497.1	90
4	4413830	497.3	100
4	4415615	497.5	110
4	4417400	497.7	120
4	4418892	497.9	130
4	4420996	498.1	140
4	4423851	498.599	150
4	4423851	498.599	160
4	4424585	498.7	170
4	4426963	498.9	180
4	4430032	499.1	190
4	4431892	499.3	200
4	4433677	499.5	210
4	4435173	499.7	220
4	4437239	499.9	230
4	4439102	500.1	240
4	4440887	500.3	250
4	4442662	500.5	250
4	4442677	500.5	260
4	4444200	500.7	270
4	4445628	500.9	30
4	4448064	501.1	40
4	4449746	501.3	50
4	4451409	501.5	60
4	4453443	501.7	70
4	4455390	501.9	80
4	4457223	502.1	90
4	4459008	502.3	100
4	4460542	502.5	110
4	4462199	502.7	120
4	4464347	502.9	130
4	4466232	503.1	140
4	4467730	503.3	150
4	4469795	503.5	160
4	4471319	503.7	170
4	4473368	503.9	180
4	4475255	504.1	190
4	4477046	504.3	200
4	4478827	504.5	210
4	4480618	504.7	220
4	4482399	504.9	230
4	4484238	505.1	240
4	4486027	505.3	250
4	4487792	505.5	250
4	4487807	505.5	260
4	4489658	505.7	270
4	4491135	505.9	30
4	4492537	506.1	40
4	4494420	506.3	50
4	4496512	506.5	60
4	4498423	506.7	70
4	4500476	506.9	80
4	4502393	507.1	90
4	4503885	507.3	100
4	4505957	507.5	110
4	4510260	508	120
4	4510260	508	130
4	4510890	508.1	140
4	4513211	508.3	150
4	4515030	508.5	160
4	4516566	508.7	170
4	4518292	508.9	180
4	4520058	509.1	190
4	4521881	509.3	200
4	4523687	509.5	210
4	4525883	509.7	220
4	4527667	509.9	230
4	4531965	510.405	240
4	4531965	510.405	250
4	4532529	510.5	250
4	4532544	510.5	260
4	4534837	510.7	270
4	4536528	510.9	40
4	4538217	511.1	50
4	4539984	511.3	60
4	4541896	511.5	70
4	4543961	511.7	80
4	4545847	511.9	90
4	4547365	512.1	100
4	4549343	512.3	110
4	4550946	512.5	120
4	4552913	512.7	130
4	4554865	512.9	140
4	4556381	513.1	150
4	4558329	513.3	160
4	4559972	513.5	170
4	4561933	513.7	180
4	4563892	513.9	190
4	4565713	514.1	200
4	4569534	514.6	210
4	4569534	514.6	220
4	4573856	514.996	230
4	4573856	514.996	240
4	4574634	515.1	250
4	4576651	515.3	260
4	4578440	515.5	260
4	4578455	515.5	270
4	4580302	515.7	280
4	4582095	515.9	30
4	4583679	516.1	40
4	4585626	516.3	50
4	4587202	516.5	60
4	4589146	516.7	70
4	4591098	516.9	80
4	4592937	517.1	90
4	4594437	517.3	100
4	4596172	517.5	110
4	4598166	517.7	120
4	4599866	517.9	130
4	4601640	518.1	140
4	4603679	518.3	150
4	4605243	518.5	160
4	4606675	518.7	170
4	4608750	518.9	180
4	4610736	519.1	190
4	4612519	519.3	200
4	4614579	519.5	210
4	4616426	519.7	220
4	4617966	519.9	230

