version 2
run FastSMR-4-20181114-02:23:17-7008
attr configname FastSMR
attr datetime 20181114-02:23:17
attr experiment FastSMR
attr inifile omnetpp.ini
attr iterationvars "$GCCycleForLatency=5000, $GC=true"
attr iterationvarsf GCCycleForLatency=5000,GC=true-
attr measurement "$GCCycleForLatency=5000, $GC=true"
attr network abstract.FastSMRModel
attr processid 7008
attr repetition 0
attr replication #0
attr resultdir results
attr runnumber 4
attr seedset 4
itervar GC true
itervar GCCycleForLatency 5000
param FastSMRModel.client_num 10
param FastSMRModel.logical_computer "\"client[0]\""
param **.globalParameters.max_distance 20000000m
param **.globalParameters.fix_latency 100ms
param **.globalParameters.latency_gen_mode 0
param **.globalStatistics.cool_down 10s
param **.underlayConfigurator.lcType "\"abstract.LogicComputer\""
param **.underlayConfigurator.lcName "\"logicComputer\""
param **.underlayConfigurator.nodeType "\"hosts.Node\""
param **.underlayConfigurator.nodeName "\"node\""
param **.underlayConfigurator.clientType "\"hosts.Client\""
param **.underlayConfigurator.clientName "\"client\""
param **.client[*].ctrl.initJoinTime 3000ms
param **.client[*].ctrl.loadCycle 500ms
param **.client[*].ctrl.discoveryCycle 1000ms
param **.client[*].ctrl.deviate false
param **.node[*].IPInterface "\"IPAddress\""
param **.node[*].HBcycle 1000ms
param **.node[*].ctrl.roundCycle 200ms
param **.node[*].ctrl.cycleStart 4000ms
param **.node[*].ctrl.GCCycle 5000ms
param **.node[*].ctrl.GC true
param **.rendezvous.ctrl.cycle 1000ms
param **.rendezvous.ctrl.starttime 5000ms
param **.rendezvous.replicaNumPolicyModule "\"replication\""
param **.rendezvous.replication.threshold 3
param **.rendezvous.replication.max_replica 5
param **.clock.err_mean 74ms
param **.clock.err_std 175ms
param **.pktLossRate 0.01
param **.Copt 200000000mps
param **.BW 1.04858e6bps
param **.MTU 12144b
param **.jitter_mu 1
param **.jitter_sigma 0.5
param **.Dmin 50ms
param **.jitter 50ms
param **.churnGeneratorModule "\"churnGenerator\""
param **.churnGenerator.stable_fraction 0.2
param **.churnGenerator.stable_mean 9000000ms
param **.churnGenerator.sessionLenShape 0.38
param **.churnGenerator.sessionLenScale 42.4
param **.churnGenerator.sessionLenMin 10s
param **.churnGenerator.sessionLength 30min
param **.churnGenerator.scan_cycle 100ms
param **.churnGenerator.life_span_min 10s
param **.churnGenerator.life_span_max 200s
param **.coordinator.locXMax 750
param **.coordinator.locYMax 550
param **.coordinator.locXMin 200
param **.coordinator.locYMin 50
param **.coordinator.LCXMax 1050
param **.coordinator.LCYMax 550
param **.coordinator.LCXMin 850
param **.coordinator.LCYMin 50
param **.coordinator.percept_radius 1000

vector 0 FastSMRModel.client[9] IndividualInteractionLatency:vector ETV
attr source latency
attr title "Individual Interaction Latency, vector"
vector 1 FastSMRModel.logicComputer[0].node[0] QdLengthVector:vector ETV
attr source QdLength
attr title "Qd Length, vector"
vector 2 FastSMRModel.logicComputer[0].node[1] QdLengthVector:vector ETV
attr source QdLength
attr title "Qd Length, vector"
vector 3 FastSMRModel.logicComputer[0].node[2] QdLengthVector:vector ETV
attr source QdLength
attr title "Qd Length, vector"
vector 4 FastSMRModel.logicComputer[0].node[3] QdLengthVector:vector ETV
attr source QdLength
attr title "Qd Length, vector"
vector 5 FastSMRModel.logicComputer[0].node[4] QdLengthVector:vector ETV
attr source QdLength
attr title "Qd Length, vector"
vector 6 FastSMRModel.client[2] IndividualInteractionLatency:vector ETV
attr source latency
attr title "Individual Interaction Latency, vector"
vector 7 FastSMRModel.client[4] IndividualInteractionLatency:vector ETV
attr source latency
attr title "Individual Interaction Latency, vector"
vector 8 FastSMRModel.client[7] IndividualInteractionLatency:vector ETV
attr source latency
attr title "Individual Interaction Latency, vector"
vector 9 FastSMRModel.client[5] IndividualInteractionLatency:vector ETV
attr source latency
attr title "Individual Interaction Latency, vector"
vector 10 FastSMRModel.client[6] IndividualInteractionLatency:vector ETV
attr source latency
attr title "Individual Interaction Latency, vector"
vector 11 FastSMRModel.client[0] IndividualInteractionLatency:vector ETV
attr source latency
attr title "Individual Interaction Latency, vector"
vector 12 FastSMRModel.client[1] IndividualInteractionLatency:vector ETV
attr source latency
attr title "Individual Interaction Latency, vector"
vector 13 FastSMRModel.client[3] IndividualInteractionLatency:vector ETV
attr source latency
attr title "Individual Interaction Latency, vector"
vector 14 FastSMRModel.client[8] IndividualInteractionLatency:vector ETV
attr source latency
attr title "Individual Interaction Latency, vector"
4	5593	10.1	30
4	7500	10.3	40
4	9279	10.5	40
4	9294	10.5	50
4	11127	10.7	60
4	12930	10.9	30
4	14498	11.1	40
4	15974	11.3	50
4	18081	11.5	60
4	20150	11.7	70
4	21949	11.9	80
4	23788	12.1	90
4	25575	12.3	100
4	27350	12.5	110
4	32651	13.119	120
4	32651	13.119	130
4	32651	13.119	140
4	34242	13.3	150
4	35781	13.5	160
4	38028	13.7	170
4	39965	13.9	180
4	41792	14.1	190
4	43009	14.3	200
4	44159	14.5	210
4	46548	14.7	220
4	48982	14.9	230
4	50521	15.1	240
4	52515	15.3	250
4	54253	15.5	250
4	54268	15.5	260
4	56244	15.7	270
4	58071	15.9	30
4	59904	16.1	40
4	61683	16.3	50
4	63466	16.5	60
4	68699	17.122	70
4	68699	17.122	80
4	68699	17.122	90
4	70476	17.3	100
4	72225	17.5	110
4	73399	17.7	120
4	79346	18.32	130
4	79346	18.32	140
4	79346	18.32	150
4	81411	18.5	160
4	83363	18.7	170
4	85160	18.9	180
4	90598	19.52	190
4	90598	19.52	200
4	90598	19.52	210
4	92327	19.7	220
4	93870	19.9	230
4	95661	20.1	240
4	97245	20.3	250
4	99490	20.5	250
4	99505	20.5	260
4	101500	20.7	270
4	103301	20.9	30
4	108274	21.519	40
4	108274	21.519	50
4	112485	21.941	60
4	112485	21.941	70
4	112485	21.941	80
4	113991	22.1	90
4	115980	22.3	100
4	117263	22.5	110
4	119450	22.7	120
4	121353	22.9	130
4	123045	23.1	140
4	124976	23.3	150
4	126772	23.5	160
4	132194	24.121	170
4	132194	24.121	180
4	132194	24.121	190
4	133911	24.3	200
4	135773	24.5	210
4	137560	24.7	220
4	139343	24.9	230
4	143810	25.5	230
4	144513	25.519	240
4	144513	25.519	250
4	144513	25.519	260
4	146597	25.7	270
4	148475	25.9	50
4	149999	26.1	60
4	151832	26.3	70
4	153889	26.5	80
4	155155	26.7	90
4	156110	26.9	100
4	158896	27.1	110
4	160874	27.3	120
4	162343	27.5	130
4	164603	27.7	140
4	166385	27.9	150
4	168033	28.1	160
4	175291	28.944	170
4	175291	28.944	180
4	175291	28.944	190
4	175291	28.944	200
4	176910	29.1	210
4	178313	29.3	220
4	180581	29.5	230
4	182840	29.7	240
4	184631	29.9	250
4	186458	30.1	260
4	189437	30.5	260
4	192959	30.951	10
4	192959	30.951	20
4	196959	31.371	30
4	196959	31.371	40
4	196959	31.371	50
4	196959	31.371	60
4	198401	31.5	70
4	200599	31.7	80
4	202207	31.9	90
4	204315	32.1	100
4	206449	32.3	110
4	207977	32.5	120
4	209453	32.7	130
4	214949	33.319	140
4	214949	33.319	150
4	214949	33.319	160
4	216339	33.5	170
4	218084	33.7	180
4	220635	33.9	190
4	222756	34.1	200
4	224531	34.3	210
4	229384	34.921	220
4	229384	34.921	230
4	229384	34.921	240
4	234116	35.5	240
4	234527	35.522	250
4	234527	35.522	260
4	234527	35.522	270
4	236057	35.7	280
4	238605	35.9	50
4	240968	36.1	60
4	242759	36.3	70
4	244548	36.5	80
4	246327	36.7	90
4	248112	36.9	100
4	249931	37.1	110
4	251413	37.3	120
4	253407	37.5	130
4	255300	37.7	140
4	256599	37.9	150
4	262352	38.519	160
4	262352	38.519	170
4	266156	38.946	180
4	266156	38.946	190
4	266156	38.946	200
4	267636	39.1	210
4	269489	39.3	220
4	271614	39.5	230
4	273426	39.7	240
4	274902	39.9	250
4	276797	40.1	260
4	278841	40.3	270
4	280628	40.5	270
4	280643	40.5	280
4	282478	40.7	280
4	287841	41.332	30
4	291391	41.751	40
4	291391	41.751	50
4	291391	41.751	60
4	291391	41.751	70
4	293096	41.9	80
4	295179	42.1	90
4	296777	42.3	100
4	304002	43.138	110
4	304002	43.138	120
4	304002	43.138	130
4	304002	43.138	140
4	305826	43.3	150
4	307538	43.5	160
4	314813	44.362	170
4	314813	44.362	180
4	314813	44.362	190
4	314813	44.362	200
4	316265	44.5	210
4	318553	44.7	220
4	320448	44.9	230
4	322020	45.1	240
4	323496	45.3	250
4	325747	45.5	250
4	325762	45.5	260
4	327733	45.7	270
4	329536	45.9	30
4	331108	46.1	40
4	332590	46.3	50
4	334833	46.5	60
4	336770	46.7	70
4	338549	46.9	80
4	340081	47.1	90
4	342065	47.3	100
4	343968	47.5	110
4	345446	47.7	120
4	347430	47.9	130
4	349190	48.1	140
4	351180	48.3	150
4	352967	48.5	160
4	358315	49.123	170
4	358315	49.123	180
4	358315	49.123	190
4	360120	49.3	200
4	361825	49.5	210
4	363766	49.7	220
4	365562	49.9	230
4	367391	50.1	240
4	368987	50.3	250
4	370961	50.5	250
4	370976	50.5	260
4	372512	50.7	270
4	374520	50.9	30
4	376455	51.1	40
4	378254	51.3	50
4	380027	51.5	60
4	381667	51.7	70
4	383568	51.9	80
4	385450	52.1	90
4	387080	52.3	100
4	389023	52.5	110
4	390811	52.7	120
4	392594	52.9	130
4	394166	53.1	140
4	395485	53.3	150
4	397866	53.5	160
4	399824	53.7	170
4	401426	53.9	180
4	403460	54.1	190
4	404972	54.3	200
4	406452	54.5	210
4	407896	54.7	220
4	412709	55.321	230
4	412709	55.321	240
4	412709	55.321	250
4	415580	55.5	250
4	415595	55.5	260
4	423690	56.48	20
4	427881	56.905	30
4	427881	56.905	40
4	427881	56.905	50
4	427881	56.905	60
4	427881	56.905	70
4	427881	56.905	80
4	430736	57.1	90
4	432365	57.3	100
4	437944	57.921	110
4	437944	57.921	120
4	437944	57.921	130
4	439711	58.1	140
4	441563	58.3	150
4	443033	58.5	160
4	445037	58.7	170
4	446739	58.9	180
4	448514	59.1	190
4	449994	59.3	200
4	452255	59.5	210
4	454025	59.7	220
4	455965	59.9	230
4	457790	60.1	240
4	459591	60.3	250
4	461360	60.5	250
4	461375	60.5	260
4	463212	60.7	270
4	464669	60.9	30
4	466835	61.1	40
4	468384	61.3	50
4	469872	61.5	60
4	472129	61.7	70
4	474042	61.9	80
4	478615	62.521	90
4	482607	62.94	100
4	482607	62.94	110
4	482607	62.94	120
4	482607	62.94	130
4	487979	63.522	140
4	491478	63.937	150
4	491478	63.937	160
4	495400	64.355	170
4	495400	64.355	180
4	495400	64.355	190
4	495400	64.355	200
4	496776	64.5	210
4	498164	64.7	220
4	500499	64.9	230
4	502777	65.1	240
4	504070	65.3	250
4	506117	65.5	250
4	509513	65.919	10
4	513386	66.338	20
4	513386	66.338	30
4	513386	66.338	40
4	513386	66.338	50
4	515364	66.5	60
4	517034	66.7	70
4	519283	66.9	80
4	521011	67.1	90
4	522485	67.3	100
4	524736	67.5	110
4	526522	67.7	120
4	528433	67.9	130
4	529982	68.1	140
4	531817	68.3	150
4	537370	68.919	160
4	540543	69.338	170
4	542463	69.538	180
4	542463	69.538	190
4	542463	69.538	200
4	542463	69.538	210
4	544249	69.7	220
4	546582	69.9	230
4	548421	70.1	240
4	550204	70.3	250
4	551975	70.5	250
4	551990	70.5	260
4	553341	70.7	270
4	555538	70.9	280
4	557485	71.1	40
4	559127	71.3	50
4	561025	71.5	60
4	562709	71.7	70
4	564618	71.9	80
2	5591	10.1	30
2	7498	10.3	40
2	9277	10.5	40
2	9292	10.5	50
2	11125	10.7	60
2	12928	10.9	30
2	14496	11.1	40
2	15972	11.3	50
2	18079	11.5	60
2	20148	11.7	70
2	21947	11.9	80
2	23786	12.1	90
2	25573	12.3	100
2	27348	12.5	110
2	29145	12.7	120
2	30612	12.9	130
2	32127	13.1	140
2	34240	13.3	150
2	35779	13.5	160
2	38026	13.7	170
2	39963	13.9	180
2	41790	14.1	190
2	43007	14.3	200
2	44157	14.5	210
2	46546	14.7	220
2	48980	14.9	230
2	50519	15.1	240
2	52513	15.3	250
2	54251	15.5	250
2	54266	15.5	260
2	56242	15.7	270
2	58069	15.9	30
2	59902	16.1	40
2	61681	16.3	50
2	63464	16.5	60
2	65257	16.7	70
2	66417	16.9	80
2	68137	17.1	90
2	70474	17.3	100
2	72223	17.5	110
2	75437	17.884	120
2	75679	17.9	130
2	77653	18.1	140
2	78826	18.3	150
2	81409	18.5	160
2	83361	18.7	170
2	86594	19.086	180
2	88096	19.289	190
2	88274	19.3	200
2	89953	19.5	210
2	92325	19.7	220
2	93868	19.9	230
2	95659	20.1	240
2	97243	20.3	250
2	99488	20.5	250
2	99503	20.5	260
2	101498	20.7	270
2	103299	20.9	30
2	106208	21.285	40
2	106392	21.3	50
2	107763	21.5	60
2	110041	21.7	70
2	111684	21.9	80
2	113989	22.1	90
2	117077	22.481	100
2	117261	22.5	110
2	119448	22.7	120
2	121351	22.9	130
2	123043	23.1	140
2	124974	23.3	150
2	126770	23.5	160
2	128551	23.7	170
2	130016	23.9	180
2	131539	24.1	190
2	133909	24.3	200
2	135771	24.5	210
2	137558	24.7	220
2	139341	24.9	230
2	140917	25.1	240
2	143568	25.485	250
2	143808	25.5	250
2	143823	25.5	260
2	146595	25.7	270
2	148473	25.9	50
2	149997	26.1	60
2	151830	26.3	70
2	153887	26.5	80
2	155918	26.883	90
2	156108	26.9	100
2	158894	27.1	110
2	160872	27.3	120
2	162341	27.5	130
2	164601	27.7	140
2	166383	27.9	150
2	168031	28.1	160
2	170040	28.3	170
2	171381	28.5	180
2	172537	28.7	190
2	174484	28.9	200
2	176908	29.1	210
2	180317	29.483	220
2	180579	29.5	230
2	182838	29.7	240
2	184629	29.9	250
2	186456	30.1	260
2	188086	30.3	270
2	189435	30.5	270
2	189451	30.5	280
2	190677	30.7	270
2	193802	31.084	40
2	194028	31.1	50
2	196172	31.3	60
2	198399	31.5	70
2	200597	31.7	80
2	204104	32.088	90
2	204313	32.1	100
2	206447	32.3	110
2	207975	32.5	120
2	209451	32.7	130
2	212985	33.089	140
2	213165	33.1	150
2	214583	33.3	160
2	216337	33.5	170
2	218082	33.7	180
2	220633	33.9	190
2	222754	34.1	200
2	224529	34.3	210
2	226013	34.5	220
2	227691	34.7	230
2	228977	34.9	240
2	231335	35.1	250
2	232678	35.3	260
2	234114	35.5	260
2	234129	35.5	270
2	236055	35.7	270
2	238603	35.9	50
2	240966	36.1	60
2	242757	36.3	70
2	244546	36.5	80
2	246325	36.7	90
2	248110	36.9	100
2	249929	37.1	110
2	251411	37.3	120
2	253405	37.5	130
2	256409	37.882	140
2	256597	37.9	150
2	258834	38.1	160
2	260114	38.3	170
2	263570	38.69	180
2	263800	38.7	190
2	267400	39.082	200
2	269297	39.286	210
2	269487	39.3	220
2	271612	39.5	230
2	273424	39.7	240
2	274900	39.9	250
2	276795	40.1	260
2	278839	40.3	270
2	280626	40.5	270
2	280641	40.5	280
2	282476	40.7	270
2	284126	40.9	30
2	285760	41.1	40
2	287269	41.3	50
2	288719	41.5	60
2	290457	41.7	70
2	293094	41.9	80
2	296579	42.285	90
2	296775	42.3	100
2	298765	42.5	110
2	299979	42.7	120
2	300977	42.9	130
2	303088	43.1	140
2	305824	43.3	150
2	307536	43.5	160
2	309002	43.7	170
2	310692	43.9	180
2	312040	44.1	190
2	313859	44.3	200
2	316263	44.5	210
2	318551	44.7	220
2	320446	44.9	230
2	322018	45.1	240
2	323494	45.3	250
2	325745	45.5	250
2	325760	45.5	260
2	327731	45.7	270
2	329534	45.9	30
2	331106	46.1	40
2	332588	46.3	50
2	334831	46.5	60
2	336768	46.7	70
2	338547	46.9	80
2	340079	47.1	90
2	342063	47.3	100
2	343966	47.5	110
2	345444	47.7	120
2	349022	48.094	130
2	349188	48.1	140
2	351178	48.3	150
2	352965	48.5	160
2	354742	48.7	170
2	355910	48.9	180
2	357632	49.1	190
2	360118	49.3	200
2	361823	49.5	210
2	363764	49.7	220
2	365560	49.9	230
2	368779	50.29	240
2	368985	50.3	250
2	370959	50.5	250
2	370974	50.5	260
2	372510	50.7	270
2	374518	50.9	30
2	376453	51.1	40
2	378252	51.3	50
2	380025	51.5	60
2	381665	51.7	70
2	383566	51.9	80
2	385448	52.1	90
2	387078	52.3	100
2	389021	52.5	110
2	390809	52.7	120
2	392592	52.9	130
2	394164	53.1	140
2	395483	53.3	150
2	397864	53.5	160
2	401222	53.887	170
2	401424	53.9	180
2	403458	54.1	190
2	404970	54.3	200
2	406450	54.5	210
2	407894	54.7	220
2	409388	54.9	230
2	410811	55.1	240
2	411857	55.3	250
2	415578	55.5	250
2	415593	55.5	260
2	417770	55.7	270
2	418684	55.9	30
2	419848	56.1	40
2	421163	56.3	50
2	423979	56.5	60
2	425839	56.7	70
2	427318	56.9	80
2	432147	57.282	90
2	432363	57.3	100
2	434351	57.5	110
2	435820	57.7	120
2	437289	57.9	130
2	439709	58.1	140
2	441561	58.3	150
2	443031	58.5	160
2	446539	58.888	170
2	446737	58.9	180
2	448512	59.1	190
2	449992	59.3	200
2	452253	59.5	210
2	454023	59.7	220
2	455963	59.9	230
2	457788	60.1	240
2	459589	60.3	250
2	461358	60.5	250
2	461373	60.5	260
2	464481	60.889	20
2	464667	60.9	30
2	466833	61.1	40
2	468382	61.3	50
2	469870	61.5	60
2	472127	61.7	70
2	474040	61.9	80
2	475875	62.1	90
2	477336	62.3	100
2	478285	62.5	110
2	479430	62.7	120
2	481668	62.9	130
2	484669	63.1	140
2	486384	63.3	150
2	488650	63.683	160
2	488872	63.7	170
2	490800	63.9	180
2	492664	64.1	190
2	494629	64.3	200
2	496774	64.5	210
2	500257	64.887	220
2	500497	64.9	230
2	503850	65.282	240
2	505745	65.481	250
2	506115	65.5	250
2	506130	65.5	260
2	508212	65.7	270
2	509151	65.9	30
2	510335	66.1	40
2	512578	66.3	50
2	515362	66.5	60
2	517032	66.7	70
2	519281	66.9	80
2	521009	67.1	90
2	522483	67.3	100
2	524734	67.5	110
2	526520	67.7	120
2	528431	67.9	130
2	529980	68.1	140
2	533400	68.481	150
2	533679	68.5	160
2	535201	68.7	170
2	536825	68.9	180
2	538407	69.1	190
2	539593	69.3	200
2	544029	69.688	210
2	544247	69.7	220
2	546580	69.9	230
2	548419	70.1	240
2	550202	70.3	250
2	551973	70.5	250
2	553163	70.684	260
2	553339	70.7	270
2	555536	70.9	30
2	557483	71.1	40
2	559125	71.3	50
2	561023	71.5	60
2	562707	71.7	70
2	564616	71.9	80
2	566480	72.1	90
2	567804	72.3	100
2	569084	72.5	110
2	570522	72.7	120
2	571756	72.9	130
2	572926	73.1	140
2	574044	73.3	150
2	575161	73.5	160
2	577060	73.7	170
2	579371	73.9	180
2	581136	74.1	190
2	582574	74.3	200
2	583707	74.5	210
2	585199	74.7	220
2	588017	75.084	230
2	588207	75.1	240
2	589858	75.3	250
2	590967	75.5	250
2	592198	75.698	260
2	592330	75.7	270
2	593908	75.9	40
2	595640	76.1	50
2	597206	76.3	60
2	598644	76.5	70
2	599828	76.7	80
2	601443	76.9	90
2	603043	77.1	100
2	604489	77.3	110
2	605663	77.5	120
2	607130	77.7	130
2	608818	77.9	140
2	610338	78.1	150
2	611629	78.3	160
2	614287	78.683	170
2	614477	78.7	180
2	616124	78.9	190
2	617283	79.1	200
2	618950	79.3	210
2	620498	79.5	220
2	621787	79.7	230
2	623370	79.9	240
2	624874	80.1	250
2	626034	80.3	260
2	627551	80.5	260
2	627565	80.5	270
2	629246	80.7	280
2	630703	80.9	30
2	632186	81.1	40
2	633632	81.3	50
2	635070	81.5	60
2	636514	81.7	70
2	637952	81.9	80
2	639430	82.1	90
2	640866	82.3	100
2	642308	82.5	110
2	643756	82.7	120
2	645195	82.9	130
2	646367	83.1	140
2	648016	83.3	150
2	649423	83.5	160
2	651021	83.7	170
2	652464	83.9	180
2	653684	84.1	190
2	655087	84.3	200
2	656744	84.5	210
2	658328	84.7	220
2	659776	84.9	230
2	661254	85.1	240
2	662549	85.3	250
2	663842	85.5	250
2	664853	85.682	260
2	665069	85.7	270
2	667037	85.9	40
2	669690	86.283	50
2	669882	86.3	60
2	671521	86.5	70
2	672963	86.7	80
2	674399	86.9	90
2	676956	87.285	100
2	677142	87.3	110
2	678775	87.5	120
2	680215	87.7	130
2	681661	87.9	140
2	683147	88.1	150
2	684591	88.3	160
2	686027	88.5	170
2	687467	88.7	180
2	688905	88.9	190
2	690397	89.1	200
2	691831	89.3	210
2	693277	89.5	220
2	694715	89.7	230
2	695846	89.9	240
2	697541	90.1	250
2	699099	90.3	260
2	700531	90.5	260
2	701606	90.681	260
2	703079	90.882	20
2	703279	90.9	30
2	704660	91.1	40
2	706312	91.3	50
2	707869	91.5	60
2	709311	91.7	70
2	710755	91.9	80
2	712241	92.1	90
2	713679	92.3	100
2	716160	92.682	110
2	716370	92.7	120
2	718011	92.9	130
2	719491	93.1	140
2	720394	93.3	150
2	723260	93.682	160
2	723520	93.7	170
2	725332	93.9	180
2	726507	94.1	190
2	728166	94.3	200
2	729708	94.5	210
2	731005	94.7	220
2	732567	94.9	230
2	734094	95.1	240
2	735526	95.3	250
2	736962	95.5	250
2	736976	95.5	260
2	738456	95.7	270
2	739902	95.9	30
2	741388	96.1	40
2	742826	96.3	50
2	744276	96.5	60
2	745704	96.7	70
2	747148	96.9	80
2	748642	97.1	90
2	750070	97.3	100
2	751510	97.5	110
2	752952	97.7	120
2	754398	97.9	130
2	755884	98.1	140
2	757324	98.3	150
2	758758	98.5	160
2	760043	98.7	170
2	761650	98.9	180
2	762823	99.1	190
2	764480	99.3	200
2	766026	99.5	210
2	767470	99.7	220
2	768910	99.9	230
2	770406	100.1	240
2	771846	100.3	250
2	773260	100.5	250
2	773274	100.5	260
2	774756	100.7	270
2	775944	100.9	30
2	777325	101.1	40
2	779067	101.3	50
2	781405	101.682	60
2	781565	101.7	70
2	783421	101.9	80
2	785015	102.1	90
2	786449	102.3	100
2	787891	102.5	110
2	789022	102.7	120
2	790677	102.9	130
2	793201	103.283	140
2	793375	103.3	150
2	795175	103.5	160
2	796476	103.7	170
2	798067	103.9	180
2	799561	104.1	190
2	800989	104.3	200
2	802439	104.5	210
2	803885	104.7	220
2	805311	104.9	230
2	806494	105.1	240
2	808139	105.3	250
2	809534	105.5	250
2	809548	105.5	260
2	812927	105.993	20
2	812927	105.993	30
2	813875	106.1	40
2	815595	106.3	50
2	817029	106.5	60
2	818475	106.7	70
2	819917	106.9	80
2	821403	107.1	90
2	822839	107.3	100
2	824281	107.5	110
2	825727	107.7	120
2	827153	107.9	130
2	828641	108.1	140
2	830085	108.3	150
2	831521	108.5	160
2	832824	108.7	170
2	834408	108.9	180
2	835628	109.1	190
2	837243	109.3	200
2	838795	109.5	210
2	840245	109.7	220
2	841675	109.9	230
2	842854	110.1	240
2	844503	110.3	250
2	846039	110.5	250
2	846053	110.5	260
2	847232	110.7	270
2	848887	110.9	30
2	850231	111.1	40
2	851616	111.3	50
2	853269	111.5	60
2	854732	111.7	70
2	856309	111.9	80
2	858880	112.29	90
2	859064	112.3	100
2	860705	112.5	110
2	862143	112.7	120
2	863321	112.9	130
2	865020	113.1	140
2	866540	113.3	150
2	867966	113.5	160
2	869420	113.7	170
2	870715	113.9	180
2	872331	114.1	190
2	873794	114.3	200
2	875244	114.5	210
2	876676	114.7	220
2	878120	114.9	230
2	879596	115.1	240
2	881048	115.3	250
2	882472	115.5	250
2	882486	115.5	260
2	883972	115.7	270
2	885412	115.9	30
2	886900	116.1	40
2	888326	116.3	50
2	889516	116.5	60
2	891127	116.7	70
2	893804	117.085	80
2	893986	117.1	90
2	895617	117.3	100
2	897069	117.5	110
2	898356	117.7	120
2	899636	117.9	130
2	901093	118.1	140
2	902733	118.3	150
2	904365	118.5	160
2	905807	118.7	170
2	907096	118.9	180
2	908706	119.1	190
2	910173	119.3	200
2	911631	119.5	210
2	913067	119.7	220
2	914497	119.9	230
2	915981	120.1	240
2	917119	120.3	250
2	918759	120.5	250
2	918773	120.5	260
2	922122	120.944	20
2	922122	120.944	30
2	923113	121.1	40
2	924752	121.3	50
2	926195	121.5	60
2	927636	121.7	70
2	928821	121.9	80
2	930324	122.1	90
2	932027	122.3	100
2	933490	122.5	110
2	934623	122.7	120
2	937489	123.083	130
2	937679	123.1	140
2	939324	123.3	150
2	940762	123.5	160
2	942210	123.7	170
2	943386	123.9	180
2	944727	124.1	190
2	946250	124.3	200
2	947531	124.5	210
2	949330	124.7	220
2	951027	124.9	230
2	952521	125.1	240
2	953949	125.3	250
2	955078	125.5	250
2	955092	125.5	260
2	956777	125.7	270
2	958077	125.9	40
2	960445	126.284	50
2	960629	126.3	60
2	962793	126.5	70
2	964241	126.7	80
2	965665	126.9	90
2	967165	127.1	100
2	968603	127.3	110
2	970037	127.5	120
2	972532	127.882	130
2	972720	127.9	140
2	975462	128.282	150
2	975664	128.3	160
2	977303	128.5	170
2	978737	128.7	180
2	980191	128.9	190
2	981665	129.1	200
1	5590	10.1	30
1	7497	10.3	40
1	9276	10.5	40
1	9291	10.5	50
1	11124	10.7	60
1	12927	10.9	30
1	14495	11.1	40
1	15971	11.3	50
1	18078	11.5	60
1	20147	11.7	70
1	21946	11.9	80
1	23785	12.1	90
1	25572	12.3	100
1	27347	12.5	110
1	29144	12.7	120
1	30611	12.9	130
1	32126	13.1	140
1	34239	13.3	150
1	35778	13.5	160
1	38025	13.7	170
1	39962	13.9	180
1	45315	14.605	190
1	45315	14.605	200
1	45315	14.605	210
1	46545	14.7	220
1	51295	15.139	230
1	51295	15.139	240
1	52512	15.3	250
1	54250	15.5	250
1	54265	15.5	260
1	56241	15.7	270
1	58068	15.9	30
1	59901	16.1	40
1	61680	16.3	50
1	63463	16.5	60
1	66969	16.931	70
1	66969	16.931	80
1	68136	17.1	90
1	70473	17.3	100
1	74140	17.731	110
1	74140	17.731	120
1	75678	17.9	130
1	79732	18.33	140
1	79732	18.33	150
1	81408	18.5	160
1	83360	18.7	170
1	85157	18.9	180
1	86799	19.1	190
1	88273	19.3	200
1	89952	19.5	210
1	94425	19.932	220
1	94425	19.932	230
1	95658	20.1	240
1	97242	20.3	250
1	99487	20.5	250
1	99502	20.5	260
1	101497	20.7	270
1	103298	20.9	30
1	105123	21.1	40
1	108555	21.532	50
1	108555	21.532	60
1	110040	21.7	70
1	111683	21.9	80
1	113988	22.1	90
1	117997	22.531	100
1	117997	22.531	110
1	119447	22.7	120
1	121350	22.9	130
1	123042	23.1	140
1	124973	23.3	150
1	126769	23.5	160
1	128550	23.7	170
1	130015	23.9	180
1	131538	24.1	190
1	133908	24.3	200
1	135770	24.5	210
1	137557	24.7	220
1	139340	24.9	230
1	140916	25.1	240
1	142058	25.3	250
1	143807	25.5	250
1	143822	25.5	260
1	146594	25.7	270
1	150536	26.13	50
1	150536	26.13	60
1	151829	26.3	70
1	153886	26.5	80
1	155152	26.7	90
1	156107	26.9	100
1	158893	27.1	110
1	160871	27.3	120
1	162340	27.5	130
1	164600	27.7	140
1	168746	28.132	150
1	168746	28.132	160
1	170039	28.3	170
1	171380	28.5	180
1	172536	28.7	190
1	174483	28.9	200
1	179077	29.334	210
1	179077	29.334	220
1	180578	29.5	230
1	182837	29.7	240
1	184628	29.9	250
1	186455	30.1	260
1	188085	30.3	270
1	189434	30.5	270
1	189450	30.5	280
1	190676	30.7	270
1	192366	30.9	40
1	194027	31.1	50
1	199136	31.534	60
1	199136	31.534	70
1	200596	31.7	80
1	202204	31.9	90
1	204312	32.1	100
1	206446	32.3	110
1	207974	32.5	120
1	209450	32.7	130
1	211697	32.9	140
1	213164	33.1	150
1	216887	33.53	160
1	216887	33.53	170
1	218081	33.7	180
1	220632	33.9	190
1	222753	34.1	200
1	226558	34.53	210
1	226558	34.53	220
1	229755	34.929	230
1	229755	34.929	240
1	231334	35.1	250
1	232677	35.3	260
1	234113	35.5	260
1	234128	35.5	270
1	236054	35.7	270
1	238602	35.9	50
1	240965	36.1	60
1	242756	36.3	70
1	244545	36.5	80
1	246324	36.7	90
1	248109	36.9	100
1	252100	37.333	110
1	252100	37.333	120
1	253404	37.5	130
1	257334	37.932	140
1	257334	37.932	150
1	260664	38.331	160
1	260664	38.331	170
1	261789	38.5	180
1	263799	38.7	190
1	265523	38.9	200
1	267633	39.1	210
1	269486	39.3	220
1	271611	39.5	230
1	275442	39.931	240
1	275442	39.931	250
1	276794	40.1	260
1	278838	40.3	270
1	280625	40.5	270
1	280640	40.5	280
1	282475	40.7	280
1	284125	40.9	30
1	285759	41.1	40
1	289346	41.534	50
1	289346	41.534	60
1	290456	41.7	70
1	293093	41.9	80
1	295176	42.1	90
1	296774	42.3	100
1	298764	42.5	110
1	299978	42.7	120
1	300976	42.9	130
1	303087	43.1	140
1	305823	43.3	150
1	307535	43.5	160
1	309001	43.7	170
1	310691	43.9	180
1	312039	44.1	190
1	317053	44.531	200
1	317053	44.531	210
1	318550	44.7	220
1	320445	44.9	230
1	322017	45.1	240
1	323493	45.3	250
1	325744	45.5	250
1	325759	45.5	260
1	327730	45.7	270
1	329533	45.9	30
1	331105	46.1	40
1	332587	46.3	50
1	334830	46.5	60
1	336767	46.7	70
1	340740	47.13	80
1	340740	47.13	90
1	342062	47.3	100
1	346116	47.731	110
1	346116	47.731	120
1	347427	47.9	130
1	349187	48.1	140
1	351177	48.3	150
1	352964	48.5	160
1	356493	48.935	170
1	356493	48.935	180
1	357631	49.1	190
1	360117	49.3	200
1	361822	49.5	210
1	363763	49.7	220
1	365559	49.9	230
1	367388	50.1	240
1	368984	50.3	250
1	370958	50.5	250
1	373194	50.731	10
1	373194	50.731	20
1	374517	50.9	30
1	376452	51.1	40
1	378251	51.3	50
1	380024	51.5	60
1	381664	51.7	70
1	383565	51.9	80
1	385447	52.1	90
1	387077	52.3	100
1	389020	52.5	110
1	390808	52.7	120
1	392591	52.9	130
1	394163	53.1	140
1	395482	53.3	150
1	397863	53.5	160
1	399821	53.7	170
1	401423	53.9	180
1	403457	54.1	190
1	404969	54.3	200
1	408457	54.735	210
1	413577	55.386	220
1	413577	55.386	230
1	413577	55.386	240
1	413577	55.386	250
1	415577	55.5	250
1	415592	55.5	260
1	417769	55.7	270
1	418683	55.9	30
1	419847	56.1	40
1	421162	56.3	50
1	423978	56.5	60
1	425838	56.7	70
1	427317	56.9	80
1	430733	57.1	90
1	432362	57.3	100
1	434350	57.5	110
1	435819	57.7	120
1	437288	57.9	130
1	439708	58.1	140
1	443732	58.534	150
1	443732	58.534	160
1	445034	58.7	170
1	446736	58.9	180
1	448511	59.1	190
1	449991	59.3	200
1	452252	59.5	210
1	454022	59.7	220
1	455962	59.9	230
1	457787	60.1	240
1	459588	60.3	250
1	461357	60.5	250
1	461372	60.5	260
1	463209	60.7	270
1	464666	60.9	30
1	466832	61.1	40
1	468381	61.3	50
1	469869	61.5	60
1	472126	61.7	70
1	474039	61.9	80
1	475874	62.1	90
1	477335	62.3	100
1	478284	62.5	110
1	479429	62.7	120
1	481667	62.9	130
1	484668	63.1	140
1	486383	63.3	150
1	487603	63.5	160
1	488871	63.7	170
1	490799	63.9	180
1	492663	64.1	190
1	499290	64.804	200
1	499290	64.804	210
1	499290	64.804	220
1	500496	64.9	230
1	502774	65.1	240
1	504067	65.3	250
1	506114	65.5	250
1	506129	65.5	260
1	511488	66.203	20
1	511488	66.203	30
1	511488	66.203	40
1	512577	66.3	50
1	515361	66.5	60
1	517031	66.7	70
1	519280	66.9	80
1	521008	67.1	90
1	522482	67.3	100
1	524733	67.5	110
1	526519	67.7	120
1	530538	68.136	130
1	530538	68.136	140
1	531814	68.3	150
1	533678	68.5	160
1	535200	68.7	170
1	536824	68.9	180
1	538406	69.1	190
1	539592	69.3	200
1	541821	69.5	210
1	544246	69.7	220
1	546579	69.9	230
1	548418	70.1	240
1	550201	70.3	250
1	551972	70.5	250
1	554073	70.729	10
1	554073	70.729	20
1	555535	70.9	30
1	557482	71.1	40
1	559124	71.3	50
1	561022	71.5	60
1	562706	71.7	70
1	564615	71.9	80
1	566479	72.1	90
1	569568	72.534	100
1	569568	72.534	110
1	570521	72.7	120
1	571755	72.9	130
1	572925	73.1	140
1	574043	73.3	150
1	577681	73.73	160
1	577681	73.73	170
1	579370	73.9	180
1	581135	74.1	190
1	584557	74.617	200
1	584557	74.617	210
1	585198	74.7	220
1	586909	74.9	230
1	588206	75.1	240
1	590966	75.5	240
1	591305	75.533	250
1	591305	75.533	260
1	594486	75.931	30
1	594486	75.931	40
1	595639	76.1	50
1	597205	76.3	60
1	598643	76.5	70
1	599827	76.7	80
1	601442	76.9	90
1	603042	77.1	100
1	604488	77.3	110
1	605662	77.5	120
1	607129	77.7	130
1	608817	77.9	140
1	610337	78.1	150
1	611628	78.3	160
1	613215	78.5	170
1	614476	78.7	180
1	617828	79.13	190
1	617828	79.13	200
1	618949	79.3	210
1	620497	79.5	220
1	621786	79.7	230
1	623369	79.9	240
1	624873	80.1	250
1	626033	80.3	260
1	627550	80.5	260
1	627564	80.5	270
1	629245	80.7	270
1	630702	80.9	30
1	632185	81.1	40
1	633631	81.3	50
1	635069	81.5	60
1	636513	81.7	70
1	637951	81.9	80
1	639429	82.1	90
1	640865	82.3	100
1	642307	82.5	110
1	643755	82.7	120
1	646928	83.133	130
1	646928	83.133	140
1	648015	83.3	150
1	649422	83.5	160
1	651020	83.7	170
1	652463	83.9	180
1	653683	84.1	190
1	655086	84.3	200
1	656743	84.5	210
1	658327	84.7	220
1	659775	84.9	230
1	661253	85.1	240
1	662548	85.3	250
1	663841	85.5	250
1	665704	85.731	20
1	665704	85.731	30
1	667036	85.9	40
1	668638	86.1	50
1	669881	86.3	60
1	671520	86.5	70
1	672962	86.7	80
1	674398	86.9	90
1	675888	87.1	100
1	677141	87.3	110
1	678774	87.5	120
1	680214	87.7	130
1	681660	87.9	140
1	683146	88.1	150
1	684590	88.3	160
1	686026	88.5	170
1	687466	88.7	180
1	688904	88.9	190
1	690396	89.1	200
1	691830	89.3	210
1	693276	89.5	220
1	696385	89.93	230
1	696385	89.93	240
1	697540	90.1	250
1	699098	90.3	260
1	700530	90.5	260
1	700544	90.5	270
1	701827	90.7	270
1	705208	91.131	30
1	705208	91.131	40
1	706311	91.3	50
1	707868	91.5	60
1	709310	91.7	70
1	710754	91.9	80
1	712240	92.1	90
1	713678	92.3	100
1	715112	92.5	110
1	716369	92.7	120
1	718010	92.9	130
1	719490	93.1	140
1	720393	93.3	150
1	721866	93.5	160
1	723519	93.7	170
1	727084	94.136	180
1	727084	94.136	190
1	728165	94.3	200
1	729707	94.5	210
1	731004	94.7	220
1	732566	94.9	230
1	734093	95.1	240
1	735525	95.3	250
1	736961	95.5	250
1	736975	95.5	260
1	738455	95.7	270
1	739901	95.9	30
1	741387	96.1	40
1	742825	96.3	50
1	744275	96.5	60
1	745703	96.7	70
1	747147	96.9	80
1	748641	97.1	90
1	750069	97.3	100
1	751509	97.5	110
1	752951	97.7	120
1	754397	97.9	130
1	755883	98.1	140
1	757323	98.3	150
1	758757	98.5	160
1	760042	98.7	170
1	763369	99.131	180
1	763369	99.131	190
1	764479	99.3	200
1	766025	99.5	210
1	767469	99.7	220
1	768909	99.9	230
1	770405	100.1	240
1	771845	100.3	250
1	773259	100.5	250
1	773273	100.5	260
1	774755	100.7	270
1	777910	101.135	30
1	777910	101.135	40
1	779066	101.3	50
1	782226	101.737	60
1	782226	101.737	70
1	783420	101.9	80
1	785014	102.1	90
1	786448	102.3	100
1	789576	102.732	110
1	789576	102.732	120
1	790676	102.9	130
1	792276	103.1	140
1	793374	103.3	150
1	795174	103.5	160
1	796475	103.7	170
1	798066	103.9	180
1	799560	104.1	190
1	800988	104.3	200
1	802438	104.5	210
1	803884	104.7	220
1	807045	105.132	230
1	807045	105.132	240
1	808138	105.3	250
1	809533	105.5	250
1	809547	105.5	260
1	811168	105.7	270
1	812063	105.9	30
1	813874	106.1	40
1	815594	106.3	50
1	817028	106.5	60
1	818474	106.7	70
1	819916	106.9	80
1	821402	107.1	90
1	822838	107.3	100
1	824280	107.5	110
1	825726	107.7	120
1	827152	107.9	130
1	828640	108.1	140
1	830084	108.3	150
1	831520	108.5	160
1	832823	108.7	170
1	834407	108.9	180
1	835627	109.1	190
1	837242	109.3	200
1	838794	109.5	210
1	840244	109.7	220
1	843470	110.138	230
1	843470	110.138	240
1	844502	110.3	250
1	846038	110.5	250
1	847778	110.731	10
1	847778	110.731	20
1	848886	110.9	30
1	850230	111.1	40
1	851615	111.3	50
1	853268	111.5	60
1	854731	111.7	70
1	856308	111.9	80
1	857810	112.1	90
1	859063	112.3	100
1	860704	112.5	110
1	862142	112.7	120
1	863320	112.9	130
1	865019	113.1	140
1	866539	113.3	150
1	867965	113.5	160
1	869419	113.7	170
1	870714	113.9	180
1	872330	114.1	190
1	873793	114.3	200
1	875243	114.5	210
1	876675	114.7	220
1	878119	114.9	230
1	879595	115.1	240
1	881047	115.3	250
1	882471	115.5	250
1	882485	115.5	260
1	883971	115.7	270
1	885411	115.9	30
1	886899	116.1	40
1	888325	116.3	50
1	889515	116.5	60
1	891126	116.7	70
1	892682	116.9	80
1	893985	117.1	90
1	895616	117.3	100
1	897068	117.5	110
1	900181	117.929	120
1	901845	118.163	130
1	901845	118.163	140
1	902732	118.3	150
1	904364	118.5	160
1	905806	118.7	170
1	907095	118.9	180
1	908705	119.1	190
1	910172	119.3	200
1	911630	119.5	210
1	913066	119.7	220
1	914496	119.9	230
1	917661	120.331	240
1	917661	120.331	250
1	918758	120.5	250
1	918772	120.5	260
1	920362	120.7	270
1	921497	120.9	30
1	923112	121.1	40
1	924751	121.3	50
1	926194	121.5	60
1	927635	121.7	70
1	928820	121.9	80
1	930323	122.1	90
1	932026	122.3	100
1	935161	122.729	110
1	935161	122.729	120
1	936261	122.9	130
1	937678	123.1	140
1	939323	123.3	150
1	940761	123.5	160
1	942209	123.7	170
1	945311	124.131	180
1	946826	124.362	190
1	948464	124.592	200
1	948464	124.592	210
1	949329	124.7	220
1	951026	124.9	230
1	952520	125.1	240
1	955077	125.5	240
1	955653	125.531	250
1	955653	125.531	260
1	956776	125.7	270
1	960025	126.243	40
1	960025	126.243	50
1	960628	126.3	60
1	962792	126.5	70
1	964240	126.7	80
1	965664	126.9	90
1	967164	127.1	100
1	968602	127.3	110
1	970036	127.5	120
1	971480	127.7	130
1	972719	127.9	140
1	974410	128.1	150
1	975663	128.3	160
1	977302	128.5	170
1	978736	128.7	180
1	980190	128.9	190
1	981664	129.1	200
1	983103	129.3	210
1	984188	129.5	220
1	985281	129.7	230
1	986376	129.9	240
1	987522	130.1	250
1	988621	130.3	260
1	989698	130.5	260
1	989711	130.5	270
1	990564	130.7	270
1	991847	130.9	30
1	993098	131.1	40
1	994185	131.3	50
1	995286	131.5	60
1	996383	131.7	70
1	997470	131.9	80
1	998609	132.1	90
1	999710	132.3	100
1	1000803	132.5	110
1	1001898	132.7	120
1	1002989	132.9	130
1	1004132	133.1	140
1	1005233	133.3	150
1	1006326	133.5	160
1	1007427	133.7	170
1	1008514	133.9	180
1	1009661	134.1	190
1	1010490	134.3	200
1	1011779	134.5	210
1	1012968	134.7	220
1	1013795	134.9	230
1	1014924	135.1	240
1	1016317	135.3	250
1	1017400	135.5	250
1	1017413	135.5	260
1	1018536	135.7	270
1	1019635	135.9	30
1	1020772	136.1	40
1	1021867	136.3	50
1	1022958	136.5	60
1	1024053	136.7	70
1	1025156	136.9	80
1	1027690	137.417	90
1	1027690	137.417	100
1	1028226	137.5	110
1	1029602	137.7	120
1	1030697	137.9	130
1	1031840	138.1	140
1	1034141	138.615	150
1	1034141	138.615	160
1	1034782	138.7	170
1	1036245	138.9	180
1	1037380	139.1	190
1	1038219	139.3	200
1	1039490	139.5	210
1	1040423	139.7	220
1	1041466	139.9	230
1	1042811	140.1	240
1	1043806	140.3	250
1	1045097	140.5	250
1	1045110	140.5	260
1	1046162	140.7	270
1	1047128	140.9	30
1	1048457	141.1	40
1	1049523	141.3	50
1	1050743	141.5	60
1	1051876	141.7	70
1	1052965	141.9	80
1	1054118	142.1	90
1	1055205	142.3	100
1	1056042	142.5	110
1	1057095	142.7	120
1	1058524	142.9	130
1	1059657	143.1	140
1	1060760	143.3	150
1	1061853	143.5	160
1	1062946	143.7	170
1	1063890	143.9	180
1	1065154	144.1	190
1	1066279	144.3	200
1	1067384	144.5	210
1	1068465	144.7	220
1	1069306	144.9	230
1	1070639	145.1	240
1	1072604	145.5	240
1	1072931	145.535	250
1	1072931	145.535	260
1	1073792	145.7	270
1	1075003	145.9	40
1	1076291	146.1	50
1	1077420	146.3	60
1	1078511	146.5	70
1	1079616	146.7	80
1	1080558	146.9	90
1	1081848	147.1	100
1	1082957	147.3	110
1	1084048	147.5	120
1	1085137	147.7	130
1	1086232	147.9	140
1	1087377	148.1	150
1	1088478	148.3	160
1	1089565	148.5	170
1	1090660	148.7	180
1	1091755	148.9	190
1	1092902	149.1	200
1	1093991	149.3	210
1	1094933	149.5	220
1	1096186	149.7	230
1	1097286	149.9	240
1	1098425	150.1	250
1	1099512	150.3	260
1	1100462	150.5	260
1	1100475	150.5	270
1	1102896	150.93	20
1	1102896	150.93	30
1	1103915	151.1	40
1	1105124	151.3	50
1	1106078	151.5	60
1	1107331	151.7	70
1	1108270	151.9	80
1	1109298	152.1	90
1	1110593	152.3	100
1	1113004	152.733	110
1	1113004	152.733	120
1	1113874	152.9	130
1	1114873	153.1	140
1	1116154	153.3	150
1	1117194	153.5	160
1	1118447	153.7	170
1	1119553	153.9	180
1	1120680	154.1	190
1	1121779	154.3	200
1	1122874	154.5	210
1	1123967	154.7	220
1	1124913	154.9	230
1	1126181	155.1	240
1	1127028	155.3	250
1	1128329	155.5	250
1	1128342	155.5	260
1	1129547	155.7	270
1	1130646	155.9	30
1	1131785	156.1	40
1	1134104	156.616	50
1	1134104	156.616	60
1	1134741	156.7	70
1	1136200	156.9	80
1	1138552	157.424	90
1	1138552	157.424	100
1	1139109	157.5	110
1	1140639	157.7	120
1	1141745	157.9	130
1	1144097	158.331	140
1	1144097	158.331	150
1	1144978	158.5	160
1	1146191	158.7	170
1	1147282	158.9	180
1	1148429	159.1	190
1	1149514	159.3	200
1	1150627	159.5	210
1	1151708	159.7	220
1	1152807	159.9	230
1	1154892	160.33	240
1	1154892	160.33	250
1	1155485	160.5	250
1	1155498	160.5	260
1	1157019	160.7	270
1	1158392	160.9	40
1	1159537	161.1	50
1	1160636	161.3	60
1	1161729	161.5	70
1	1162828	161.7	80
1	1163911	161.9	90
1	1165059	162.1	100
1	1166153	162.3	110
1	1167252	162.5	120
1	1169420	162.929	130
1	1169420	162.929	140
1	1170330	163.1	150
1	1171694	163.3	160
1	1173995	163.73	170
1	1173995	163.73	180
1	1174881	163.9	190
1	1176144	164.1	200
1	1176973	164.3	210
1	1178262	164.5	220
1	1179457	164.7	230
1	1180385	164.9	240
1	1181679	165.1	250
1	1182790	165.3	260
1	1183875	165.5	260
1	1183888	165.5	270
1	1186238	165.934	20
1	1186238	165.934	30
1	1187143	166.1	40
1	1188350	166.3	50
1	1190483	166.736	60
1	1191775	166.967	70
1	1191775	166.967	80
1	1192662	167.1	90
1	1193965	167.3	100
1	1195060	167.5	110
1	1196161	167.7	120
1	1197244	167.9	130
1	1198244	168.1	140
1	1199460	168.3	150
1	1200583	168.5	160
1	1201151	168.7	170
1	1202516	168.9	180
1	1203947	169.1	190
1	1205040	169.3	200
1	1205984	169.5	210
1	1207207	169.7	220
1	1208339	169.9	230
1	1209472	170.1	240
1	1210579	170.3	250
1	1211664	170.5	250
1	1211677	170.5	260
1	1212792	170.7	270
1	1213887	170.9	30
1	1215024	171.1	40
1	1217270	171.531	50
1	1217270	171.531	60
1	1218240	171.7	70
1	1219448	171.9	80
1	1220587	172.1	90
1	1221539	172.3	100
1	1222780	172.5	110
1	1223886	172.7	120
1	1224985	172.9	130
1	1226126	173.1	140
1	1227223	173.3	150
1	1228314	173.5	160
1	1229391	173.7	170
1	1230347	173.9	180
1	1231632	174.1	190
1	1232750	174.3	200
1	1233847	174.5	210
1	1234940	174.7	220
1	1235886	174.9	230
1	1237183	175.1	240
vector 15 FastSMRModel.logicComputer[0].node[6] QdLengthVector:vector ETV
attr source QdLength
attr title "Qd Length, vector"
vector 16 FastSMRModel.logicComputer[0].node[7] QdLengthVector:vector ETV
attr source QdLength
attr title "Qd Length, vector"
vector 17 FastSMRModel.logicComputer[0].node[5] QdLengthVector:vector ETV
attr source QdLength
attr title "Qd Length, vector"
5	5594	10.1	30
5	7501	10.3	40
5	9280	10.5	40
5	9295	10.5	50
5	11128	10.7	60
5	16466	11.323	30
5	16466	11.323	40
5	16466	11.323	50
5	18082	11.5	60
5	20151	11.7	70
5	21950	11.9	80
5	23789	12.1	90
5	25576	12.3	100
5	27351	12.5	110
5	29148	12.7	120
5	30615	12.9	130
5	36382	13.519	140
5	36382	13.519	150
5	36382	13.519	160
5	38029	13.7	170
5	39966	13.9	180
5	44525	14.519	190
5	44525	14.519	200
5	44525	14.519	210
5	46549	14.7	220
5	48983	14.9	230
5	50522	15.1	240
5	52516	15.3	250
5	54254	15.5	250
5	54269	15.5	260
5	56245	15.7	270
5	58072	15.9	30
5	59905	16.1	40
5	61684	16.3	50
5	63467	16.5	60
5	65260	16.7	70
5	66420	16.9	80
5	68140	17.1	90
5	73762	17.719	100
5	73762	17.719	110
5	73762	17.719	120
5	75682	17.9	130
5	77656	18.1	140
5	78829	18.3	150
5	81412	18.5	160
5	83364	18.7	170
5	85161	18.9	180
5	86803	19.1	190
5	88277	19.3	200
5	89956	19.5	210
5	92328	19.7	220
5	97860	20.321	230
5	97860	20.321	240
5	97860	20.321	250
5	99491	20.5	250
5	99506	20.5	260
5	101501	20.7	270
5	103302	20.9	30
5	105127	21.1	40
5	106395	21.3	50
5	107766	21.5	60
5	110044	21.7	70
5	111687	21.9	80
5	113992	22.1	90
5	115981	22.3	100
5	117264	22.5	110
5	119451	22.7	120
5	121354	22.9	130
5	123046	23.1	140
5	124977	23.3	150
5	126773	23.5	160
5	128554	23.7	170
5	130019	23.9	180
5	131542	24.1	190
5	133912	24.3	200
5	135774	24.5	210
5	137561	24.7	220
5	142425	25.319	230
5	142425	25.319	240
5	142425	25.319	250
5	143811	25.5	250
5	143826	25.5	260
5	146598	25.7	270
5	148476	25.9	50
5	150000	26.1	60
5	151833	26.3	70
5	156584	26.921	80
5	156584	26.921	90
5	156584	26.921	100
5	162961	27.519	110
5	162961	27.519	120
5	162961	27.519	130
5	164604	27.7	140
5	166386	27.9	150
5	168034	28.1	160
5	173038	28.723	170
5	173038	28.723	180
5	173038	28.723	190
5	178674	29.319	200
5	178674	29.319	210
5	178674	29.319	220
5	180582	29.5	230
5	182841	29.7	240
5	184632	29.9	250
5	186459	30.1	260
5	189438	30.5	260
5	191186	30.73	10
5	191186	30.73	20
5	194846	31.151	30
5	194846	31.151	40
5	194846	31.151	50
5	196175	31.3	60
5	202691	31.918	70
5	202691	31.918	80
5	202691	31.918	90
5	204316	32.1	100
5	210060	32.722	110
5	210060	32.722	120
5	210060	32.722	130
5	211701	32.9	140
5	218881	33.737	150
5	218881	33.737	160
5	218881	33.737	170
5	218881	33.737	180
5	220636	33.9	190
5	222757	34.1	200
5	224532	34.3	210
5	226016	34.5	220
5	227694	34.7	230
5	233056	35.322	240
5	233056	35.322	250
5	234117	35.5	250
5	236659	35.74	20
5	236659	35.74	30
5	236659	35.74	40
5	238606	35.9	50
5	240969	36.1	60
5	242760	36.3	70
5	244549	36.5	80
5	246328	36.7	90
5	248113	36.9	100
5	249932	37.1	110
5	251414	37.3	120
5	253408	37.5	130
5	255301	37.7	140
5	256600	37.9	150
5	258837	38.1	160
5	260117	38.3	170
5	261793	38.5	180
5	263803	38.7	190
5	265527	38.9	200
5	267637	39.1	210
5	269490	39.3	220
5	271615	39.5	230
5	273427	39.7	240
5	274903	39.9	250
5	276798	40.1	260
5	278842	40.3	270
5	280629	40.5	270
5	280644	40.5	280
5	282479	40.7	290
5	284129	40.9	30
5	285763	41.1	40
5	287272	41.3	50
5	288722	41.5	60
5	290460	41.7	70
5	293097	41.9	80
5	295180	42.1	90
5	296778	42.3	100
5	301464	42.92	110
5	301464	42.92	120
5	301464	42.92	130
5	303091	43.1	140
5	309506	43.725	150
5	309506	43.725	160
5	312671	44.145	170
5	312671	44.145	180
5	312671	44.145	190
5	313862	44.3	200
5	316266	44.5	210
5	318554	44.7	220
5	324093	45.319	230
5	324093	45.319	240
5	324093	45.319	250
5	325748	45.5	250
5	325763	45.5	260
5	327734	45.7	270
5	333189	46.319	30
5	333189	46.319	40
5	333189	46.319	50
5	334834	46.5	60
5	336771	46.7	70
5	338550	46.9	80
5	340082	47.1	90
5	342066	47.3	100
5	343969	47.5	110
5	345447	47.7	120
5	347431	47.9	130
5	349191	48.1	140
5	351181	48.3	150
5	352968	48.5	160
5	354745	48.7	170
5	355913	48.9	180
5	357635	49.1	190
5	360121	49.3	200
5	361826	49.5	210
5	363767	49.7	220
5	365563	49.9	230
5	367392	50.1	240
5	368988	50.3	250
5	370962	50.5	250
5	370977	50.5	260
5	372513	50.7	270
5	374521	50.9	30
5	376456	51.1	40
5	378255	51.3	50
5	380028	51.5	60
5	381668	51.7	70
5	383569	51.9	80
5	385451	52.1	90
5	387081	52.3	100
5	389024	52.5	110
5	390812	52.7	120
5	396072	53.319	130
5	396072	53.319	140
5	396072	53.319	150
5	397867	53.5	160
5	399825	53.7	170
5	401427	53.9	180
5	406948	54.528	190
5	409973	54.948	200
5	409973	54.948	210
5	412176	55.301	220
5	412176	55.301	230
5	412176	55.301	240
5	412176	55.301	250
5	415581	55.5	250
5	419015	55.919	10
5	420583	56.26	20
5	420583	56.26	30
5	420583	56.26	40
5	421166	56.3	50
5	423982	56.5	60
5	425842	56.7	70
5	427321	56.9	80
5	430737	57.1	90
5	432366	57.3	100
5	434354	57.5	110
5	435823	57.7	120
5	437292	57.9	130
5	439712	58.1	140
5	441564	58.3	150
5	443034	58.5	160
5	445038	58.7	170
5	450597	59.319	180
5	450597	59.319	190
5	450597	59.319	200
5	452256	59.5	210
5	454026	59.7	220
5	455966	59.9	230
5	457791	60.1	240
5	459592	60.3	250
5	461361	60.5	250
5	461376	60.5	260
5	463213	60.7	270
5	464670	60.9	30
5	470481	61.522	40
5	470481	61.522	50
5	470481	61.522	60
5	472130	61.7	70
5	474043	61.9	80
5	475878	62.1	90
5	479788	62.722	100
5	479788	62.722	110
5	479788	62.722	120
5	481671	62.9	130
5	484672	63.1	140
5	489372	63.718	150
5	489372	63.718	160
5	493323	64.137	170
5	493323	64.137	180
5	493323	64.137	190
5	498524	64.719	200
5	498524	64.719	210
5	498524	64.719	220
5	504506	65.333	230
5	504506	65.333	240
5	504506	65.333	250
5	506118	65.5	250
5	506133	65.5	260
5	510719	66.119	20
5	510719	66.119	30
5	510719	66.119	40
5	517645	66.72	50
5	517645	66.72	60
5	517645	66.72	70
5	523100	67.326	80
5	523100	67.326	90
5	523100	67.326	100
5	524737	67.5	110
5	526523	67.7	120
5	528434	67.9	130
5	529983	68.1	140
5	531818	68.3	150
5	533682	68.5	160
5	535204	68.7	170
5	540093	69.319	180
5	540093	69.319	190
5	540093	69.319	200
5	541825	69.5	210
5	544250	69.7	220
5	546583	69.9	230
5	548422	70.1	240
5	550205	70.3	250
5	551976	70.5	250
5	551991	70.5	260
5	553342	70.7	270
5	555539	70.9	30
5	557486	71.1	40
5	559128	71.3	50
5	561026	71.5	60
5	562710	71.7	70
5	564619	71.9	80
5	566483	72.1	90
5	567807	72.3	100
5	575784	73.6	110
5	575784	73.6	120
5	575784	73.6	130
5	575784	73.6	140
5	575784	73.6	150
5	575784	73.6	160
5	577062	73.7	170
5	579373	73.9	180
5	581138	74.1	190
5	582576	74.3	200
5	583709	74.5	210
5	585201	74.7	220
5	586912	74.9	230
5	588209	75.1	240
5	589860	75.3	250
5	590969	75.5	250
5	590983	75.5	260
5	592332	75.7	30
5	593910	75.9	40
5	595642	76.1	50
5	597208	76.3	60
5	600341	76.733	70
5	600341	76.733	80
5	601445	76.9	90
5	603045	77.1	100
5	606039	77.533	110
5	606039	77.533	120
5	607132	77.7	130
5	608820	77.9	140
5	610340	78.1	150
5	611631	78.3	160
5	613218	78.5	170
5	614479	78.7	180
5	616126	78.9	190
5	617285	79.1	200
5	618952	79.3	210
5	620500	79.5	220
5	621789	79.7	230
5	623372	79.9	240
5	624876	80.1	250
5	626036	80.3	260
5	627553	80.5	260
5	627567	80.5	270
5	629248	80.7	20
5	630705	80.9	30
5	632188	81.1	40
5	633634	81.3	50
5	635072	81.5	60
5	636516	81.7	70
5	637954	81.9	80
5	639432	82.1	90
5	640868	82.3	100
5	642310	82.5	110
5	643758	82.7	120
5	645197	82.9	130
5	646369	83.1	140
5	648018	83.3	150
5	649425	83.5	160
5	651023	83.7	170
5	654189	84.131	180
5	655832	84.36	190
5	655832	84.36	200
5	656746	84.5	210
5	658330	84.7	220
5	659778	84.9	230
5	661256	85.1	240
5	663844	85.5	240
5	664177	85.532	250
5	664177	85.532	260
5	665071	85.7	30
5	667039	85.9	40
5	668641	86.1	50
5	669884	86.3	60
5	671523	86.5	70
5	672965	86.7	80
5	674401	86.9	90
5	675891	87.1	100
5	677144	87.3	110
5	678777	87.5	120
5	680217	87.7	130
5	681663	87.9	140
5	683149	88.1	150
5	684593	88.3	160
5	686029	88.5	170
5	687469	88.7	180
5	688907	88.9	190
5	690399	89.1	200
5	691833	89.3	210
5	693279	89.5	220
5	694717	89.7	230
5	695848	89.9	240
5	697543	90.1	250
5	699101	90.3	260
5	700533	90.5	260
5	700547	90.5	270
5	701830	90.7	20
5	703281	90.9	30
5	704662	91.1	40
5	706314	91.3	50
5	707871	91.5	60
5	709313	91.7	70
5	710757	91.9	80
5	712243	92.1	90
5	713681	92.3	100
5	715115	92.5	110
5	716372	92.7	120
5	718013	92.9	130
5	720743	93.337	140
5	722527	93.569	150
5	722527	93.569	160
5	723522	93.7	170
5	725334	93.9	180
5	726509	94.1	190
5	728168	94.3	200
5	729710	94.5	210
5	731007	94.7	220
5	732569	94.9	230
5	734096	95.1	240
5	735528	95.3	250
5	736964	95.5	250
5	736978	95.5	260
5	738458	95.7	20
5	739904	95.9	30
5	741390	96.1	40
5	742828	96.3	50
5	744278	96.5	60
5	745706	96.7	70
5	747150	96.9	80
5	748644	97.1	90
5	750072	97.3	100
5	751512	97.5	110
5	752954	97.7	120
5	754400	97.9	130
5	755886	98.1	140
5	757326	98.3	150
5	758760	98.5	160
5	760045	98.7	170
5	761652	98.9	180
5	762825	99.1	190
5	764482	99.3	200
5	766028	99.5	210
5	767472	99.7	220
5	768912	99.9	230
5	770408	100.1	240
5	771848	100.3	250
5	773262	100.5	250
5	773276	100.5	260
5	776332	100.931	20
5	776332	100.931	30
5	777327	101.1	40
5	779069	101.3	50
5	780629	101.5	60
5	781567	101.7	70
5	783423	101.9	80
5	785017	102.1	90
5	786451	102.3	100
5	787893	102.5	110
5	789024	102.7	120
5	790679	102.9	130
5	792279	103.1	140
5	793377	103.3	150
5	795177	103.5	160
5	796478	103.7	170
5	798069	103.9	180
5	799563	104.1	190
5	800991	104.3	200
5	802441	104.5	210
5	803887	104.7	220
5	805313	104.9	230
5	806496	105.1	240
5	808141	105.3	250
5	809536	105.5	250
5	809550	105.5	260
5	812429	105.929	20
5	812429	105.929	30
5	813877	106.1	40
5	815597	106.3	50
5	817031	106.5	60
5	818477	106.7	70
5	819919	106.9	80
5	821405	107.1	90
5	822841	107.3	100
5	824283	107.5	110
5	825729	107.7	120
5	827155	107.9	130
5	828643	108.1	140
5	830087	108.3	150
5	831523	108.5	160
5	832826	108.7	170
5	834410	108.9	180
5	835630	109.1	190
5	837245	109.3	200
5	838797	109.5	210
5	840247	109.7	220
5	841677	109.9	230
5	842856	110.1	240
5	844505	110.3	250
5	846041	110.5	250
5	846055	110.5	260
5	847234	110.7	20
5	850830	111.14	30
5	852385	111.372	40
5	852385	111.372	50
5	853271	111.5	60
5	854734	111.7	70
5	856311	111.9	80
5	857813	112.1	90
5	859066	112.3	100
5	860707	112.5	110
5	863826	112.931	120
5	863826	112.931	130
5	865022	113.1	140
5	866542	113.3	150
5	867968	113.5	160
5	869422	113.7	170
5	870717	113.9	180
5	872333	114.1	190
5	873796	114.3	200
5	875246	114.5	210
5	876678	114.7	220
5	878122	114.9	230
5	879598	115.1	240
5	881050	115.3	250
5	882474	115.5	250
5	882488	115.5	260
5	883974	115.7	20
5	885414	115.9	30
5	886902	116.1	40
5	890055	116.535	50
5	890055	116.535	60
5	891129	116.7	70
5	892685	116.9	80
5	893988	117.1	90
5	895619	117.3	100
5	897071	117.5	110
5	898358	117.7	120
5	899638	117.9	130
5	901095	118.1	140
5	902735	118.3	150
5	904367	118.5	160
5	905809	118.7	170
5	907098	118.9	180
5	908708	119.1	190
5	910175	119.3	200
5	911633	119.5	210
5	913069	119.7	220
5	914499	119.9	230
5	915983	120.1	240
5	917121	120.3	250
5	918761	120.5	250
5	918775	120.5	260
5	920365	120.7	20
5	921500	120.9	30
5	923115	121.1	40
5	924754	121.3	50
5	926197	121.5	60
5	929193	121.934	70
5	929193	121.934	80
5	930326	122.1	90
5	932029	122.3	100
5	933492	122.5	110
5	934625	122.7	120
5	936264	122.9	130
5	937681	123.1	140
5	939326	123.3	150
5	940764	123.5	160
5	943784	123.934	170
5	943784	123.934	180
5	944729	124.1	190
5	946252	124.3	200
5	947533	124.5	210
5	949332	124.7	220
5	951029	124.9	230
5	952523	125.1	240
5	953951	125.3	250
5	955080	125.5	250
5	955094	125.5	260
5	958445	125.93	30
5	959620	126.159	40
5	959620	126.159	50
5	960631	126.3	60
5	962795	126.5	70
5	964243	126.7	80
5	965667	126.9	90
5	967167	127.1	100
5	968605	127.3	110
5	970039	127.5	120
5	971483	127.7	130
5	972722	127.9	140
5	974413	128.1	150
5	975666	128.3	160
5	977305	128.5	170
5	978739	128.7	180
5	980193	128.9	190
5	981667	129.1	200
5	983105	129.3	210
5	984190	129.5	220
5	985283	129.7	230
5	986378	129.9	240
5	987524	130.1	250
5	988623	130.3	260
5	989700	130.5	260
5	990932	130.731	10
5	990932	130.731	20
5	991849	130.9	30
5	993100	131.1	40
5	994187	131.3	50
5	995288	131.5	60
5	996385	131.7	70
5	997472	131.9	80
5	998611	132.1	90
5	999712	132.3	100
5	1000805	132.5	110
5	1001900	132.7	120
5	1002991	132.9	130
5	1004134	133.1	140
5	1005235	133.3	150
5	1006328	133.5	160
5	1007429	133.7	170
5	1008516	133.9	180
5	1010860	134.331	190
5	1010860	134.331	200
5	1011781	134.5	210
5	1014445	135.021	220
5	1014445	135.021	230
5	1014926	135.1	240
5	1016319	135.3	250
5	1017402	135.5	250
5	1017415	135.5	260
5	1018538	135.7	20
5	1019637	135.9	30
5	1020774	136.1	40
5	1021869	136.3	50
5	1022960	136.5	60
5	1024055	136.7	70
5	1025158	136.9	80
5	1026295	137.1	90
5	1027083	137.3	100
5	1028228	137.5	110
5	1029604	137.7	120
5	1030699	137.9	130
5	1031842	138.1	140
5	1033685	138.53	150
5	1033685	138.53	160
5	1034784	138.7	170
5	1036247	138.9	180
5	1038597	139.332	190
5	1038597	139.332	200
5	1040827	139.734	210
5	1042038	139.967	220
5	1042038	139.967	230
5	1044168	140.329	240
5	1044168	140.329	250
5	1045099	140.5	250
5	1045112	140.5	260
5	1047586	140.939	20
5	1047586	140.939	30
5	1048459	141.1	40
5	1049525	141.3	50
5	1050745	141.5	60
5	1051878	141.7	70
5	1052967	141.9	80
5	1054120	142.1	90
5	1056636	142.629	100
5	1056636	142.629	110
5	1057097	142.7	120
5	1058526	142.9	130
5	1059659	143.1	140
5	1060762	143.3	150
5	1061855	143.5	160
5	1062948	143.7	170
5	1063892	143.9	180
5	1065156	144.1	190
5	1066281	144.3	200
5	1067386	144.5	210
5	1069684	144.931	220
5	1069684	144.931	230
5	1070641	145.1	240
5	1071838	145.3	250
5	1072606	145.5	250
5	1072619	145.5	260
5	1073794	145.7	30
5	1075005	145.9	40
5	1076293	146.1	50
5	1077422	146.3	60
5	1078513	146.5	70
5	1079618	146.7	80
5	1080560	146.9	90
5	1081850	147.1	100
5	1082959	147.3	110
5	1084050	147.5	120
5	1085139	147.7	130
5	1086234	147.9	140
5	1087379	148.1	150
5	1088480	148.3	160
5	1089567	148.5	170
5	1090662	148.7	180
5	1091757	148.9	190
5	1092904	149.1	200
5	1093993	149.3	210
5	1094935	149.5	220
5	1096188	149.7	230
5	1097288	149.9	240
5	1098427	150.1	250
5	1099514	150.3	260
5	1100464	150.5	260
5	1101746	150.732	10
5	1101746	150.732	20
5	1102468	150.9	30
5	1103917	151.1	40
5	1105126	151.3	50
5	1106080	151.5	60
5	1107333	151.7	70
5	1109682	152.131	80
5	1109682	152.131	90
5	1110595	152.3	100
5	1111792	152.5	110
5	1112578	152.7	120
5	1115253	153.132	130
5	1115253	153.132	140
5	1116156	153.3	150
5	1117196	153.5	160
5	1118449	153.7	170
5	1119555	153.9	180
5	1120682	154.1	190
5	1121781	154.3	200
5	1122876	154.5	210
5	1123969	154.7	220
5	1124915	154.9	230
5	1127424	155.331	240
5	1127424	155.331	250
5	1128331	155.5	250
5	1128344	155.5	260
5	1129549	155.7	20
5	1130648	155.9	30
5	1131787	156.1	40
5	1133642	156.53	50
5	1133642	156.53	60
5	1134743	156.7	70
5	1136202	156.9	80
5	1137339	157.1	90
5	1138117	157.3	100
5	1139111	157.5	110
5	1140641	157.7	120
5	1141747	157.9	130
5	1142890	158.1	140
5	1143674	158.3	150
5	1144980	158.5	160
5	1146193	158.7	170
5	1147284	158.9	180
5	1148431	159.1	190
5	1149516	159.3	200
5	1150629	159.5	210
5	1151710	159.7	220
5	1152809	159.9	230
5	1153952	160.1	240
5	1155487	160.5	240
5	1155822	160.531	250
5	1155822	160.531	260
5	1157021	160.7	30
5	1158394	160.9	40
5	1159539	161.1	50
5	1160638	161.3	60
5	1161731	161.5	70
5	1162830	161.7	80
5	1163913	161.9	90
5	1165061	162.1	100
5	1166155	162.3	110
5	1167254	162.5	120
5	1168349	162.7	130
5	1169131	162.9	140
5	1170332	163.1	150
5	1171696	163.3	160
5	1172791	163.5	170
5	1173587	163.7	180
5	1174883	163.9	190
5	1177353	164.331	200
5	1177353	164.331	210
5	1178264	164.5	220
5	1179459	164.7	230
5	1180387	164.9	240
5	1181681	165.1	250
5	1182792	165.3	260
5	1183877	165.5	260
5	1183890	165.5	270
5	1185009	165.7	20
5	1185791	165.9	30
5	1187145	166.1	40
5	1189440	166.532	50
5	1189440	166.532	60
5	1190164	166.7	70
5	1191171	166.9	80
5	1192664	167.1	90
5	1193967	167.3	100
5	1195062	167.5	110
5	1196163	167.7	120
5	1197246	167.9	130
5	1198246	168.1	140
5	1199462	168.3	150
5	1201353	168.732	160
5	1201353	168.732	170
5	1202518	168.9	180
5	1203949	169.1	190
5	1205042	169.3	200
5	1205986	169.5	210
5	1207209	169.7	220
5	1208341	169.9	230
5	1209474	170.1	240
5	1210581	170.3	250
5	1211666	170.5	250
5	1211679	170.5	260
5	1212794	170.7	20
5	1213889	170.9	30
5	1216094	171.329	40
5	1216094	171.329	50
5	1216845	171.5	60
5	1218242	171.7	70
5	1219450	171.9	80
5	1220589	172.1	90
5	1221541	172.3	100
5	1222782	172.5	110
5	1223888	172.7	120
5	1224987	172.9	130
5	1226128	173.1	140
5	1227225	173.3	150
5	1228316	173.5	160
5	1229393	173.7	170
5	1230349	173.9	180
5	1231634	174.1	190
5	1232752	174.3	200
5	1233849	174.5	210
5	1234942	174.7	220
5	1235888	174.9	230
5	1237185	175.1	240
5	1238281	175.3	250
5	1239033	175.5	250
5	1239045	175.5	260
5	1239811	175.7	270
5	1240555	175.9	280
5	1241202	176.1	290
5	1242110	176.3	300
5	1243984	177.994	310
5	1243984	177.994	320
5	1243984	177.994	330
5	1243984	177.994	340
5	1243984	177.994	350
5	1243984	177.994	360
5	1243984	177.994	370
5	1243984	177.994	380
5	1245502	178.1	390
5	1247056	178.3	400
5	1247566	178.5	410
5	1248781	178.7	420
5	1250399	178.9	430
5	1252579	179.1	440
5	1254395	179.3	450
5	1255585	179.5	460
5	1256747	179.7	470
5	1257930	179.9	480
5	1259174	180.1	490
5	1260352	180.3	500
5	1261592	180.5	500
5	1261604	180.5	510
5	1263071	180.7	520
5	1264744	180.9	530
5	1268808	181.1	540
5	1272126	181.3	550
5	1273963	181.5	560
5	1275665	181.7	570
5	1277309	181.9	580
5	1278994	182.1	590
5	1280335	182.3	600
5	1282344	182.5	610
5	1284103	182.7	620
5	1285541	182.9	630
5	1295009	183.516	640
5	1295009	183.516	650
5	1298790	183.932	660
5	1298790	183.932	670
5	1298790	183.932	680
5	1304564	184.515	690
5	1304564	184.515	700
5	1315604	184.937	710
5	1315604	184.937	720
5	1315604	184.937	730
5	1320974	185.1	740
5	1325305	185.3	750
5	1327188	185.5	750
5	1327200	185.5	760
5	1329734	185.7	770
5	1331853	185.9	100
3	5592	10.1	30
3	7499	10.3	40
3	9278	10.5	40
3	9293	10.5	50
3	11126	10.7	60
3	12929	10.9	30
3	14497	11.1	40
3	17781	11.484	50
3	18080	11.5	60
3	20149	11.7	70
3	21948	11.9	80
3	23787	12.1	90
3	25574	12.3	100
3	27349	12.5	110
3	29146	12.7	120
3	30613	12.9	130
3	32128	13.1	140
3	34241	13.3	150
3	35780	13.5	160
3	38027	13.7	170
3	39964	13.9	180
3	41791	14.1	190
3	43008	14.3	200
3	46238	14.683	210
3	46547	14.7	220
3	48981	14.9	230
3	50520	15.1	240
3	54047	15.487	250
3	54252	15.5	250
3	54267	15.5	260
3	56243	15.7	270
3	58070	15.9	30
3	59903	16.1	40
3	61682	16.3	50
3	63465	16.5	60
3	65258	16.7	70
3	66418	16.9	80
3	70146	17.282	90
3	70475	17.3	100
3	72224	17.5	110
3	73398	17.7	120
3	75680	17.9	130
3	77654	18.1	140
3	78827	18.3	150
3	81410	18.5	160
3	83362	18.7	170
3	85159	18.9	180
3	86801	19.1	190
3	88275	19.3	200
3	89954	19.5	210
3	92326	19.7	220
3	93869	19.9	230
3	95660	20.1	240
3	97244	20.3	250
3	99489	20.5	250
3	99504	20.5	260
3	101499	20.7	270
3	103300	20.9	30
3	105125	21.1	40
3	106393	21.3	50
3	107764	21.5	60
3	110042	21.7	70
3	111685	21.9	80
3	113990	22.1	90
3	115979	22.3	100
3	117262	22.5	110
3	119449	22.7	120
3	122813	23.083	130
3	123044	23.1	140
3	124975	23.3	150
3	126771	23.5	160
3	128552	23.7	170
3	130017	23.9	180
3	131540	24.1	190
3	133910	24.3	200
3	135772	24.5	210
3	137559	24.7	220
3	139342	24.9	230
3	140918	25.1	240
3	142060	25.3	250
3	143809	25.5	250
3	143824	25.5	260
3	146596	25.7	270
3	148474	25.9	50
3	151618	26.282	60
3	151831	26.3	70
3	157236	26.965	80
3	157236	26.965	90
3	157236	26.965	100
3	158895	27.1	110
3	160873	27.3	120
3	162342	27.5	130
3	166163	27.886	140
3	166384	27.9	150
3	168032	28.1	160
3	170041	28.3	170
3	171382	28.5	180
3	172538	28.7	190
3	174485	28.9	200
3	176909	29.1	210
3	178312	29.3	220
3	180580	29.5	230
3	182839	29.7	240
3	184630	29.9	250
3	187852	30.283	260
3	188087	30.3	270
3	189436	30.5	270
3	189452	30.5	280
3	190678	30.7	270
3	192368	30.9	40
3	194029	31.1	50
3	198145	31.483	60
3	198400	31.5	70
3	200598	31.7	80
3	202206	31.9	90
3	204314	32.1	100
3	206448	32.3	110
3	207976	32.5	120
3	209452	32.7	130
3	211699	32.9	140
3	213166	33.1	150
3	214584	33.3	160
3	216338	33.5	170
3	218083	33.7	180
3	220634	33.9	190
3	222755	34.1	200
3	224530	34.3	210
3	226014	34.5	220
3	227692	34.7	230
3	228978	34.9	240
3	231336	35.1	250
3	234115	35.5	250
3	237263	35.783	20
3	237263	35.783	30
3	237263	35.783	40
3	238604	35.9	50
3	240967	36.1	60
3	242758	36.3	70
3	244547	36.5	80
3	246326	36.7	90
3	248111	36.9	100
3	249930	37.1	110
3	251412	37.3	120
3	253406	37.5	130
3	255299	37.7	140
3	256598	37.9	150
3	258835	38.1	160
3	260115	38.3	170
3	261791	38.5	180
3	263801	38.7	190
3	265525	38.9	200
3	269169	39.284	210
3	269488	39.3	220
3	271613	39.5	230
3	273425	39.7	240
3	276593	40.084	250
3	276796	40.1	260
3	278840	40.3	270
3	280627	40.5	270
3	280642	40.5	280
3	283894	40.885	20
3	284127	40.9	30
3	285761	41.1	40
3	287270	41.3	50
3	288720	41.5	60
3	290458	41.7	70
3	293095	41.9	80
3	295178	42.1	90
3	296776	42.3	100
3	298766	42.5	110
3	300771	42.885	120
3	300978	42.9	130
3	303089	43.1	140
3	305825	43.3	150
3	307537	43.5	160
3	309003	43.7	170
3	310693	43.9	180
3	312041	44.1	190
3	313860	44.3	200
3	316264	44.5	210
3	318552	44.7	220
3	320447	44.9	230
3	322019	45.1	240
3	323495	45.3	250
3	325746	45.5	250
3	325761	45.5	260
3	327732	45.7	270
3	329535	45.9	30
3	331107	46.1	40
3	332589	46.3	50
3	334832	46.5	60
3	336769	46.7	70
3	338548	46.9	80
3	340080	47.1	90
3	342064	47.3	100
3	343967	47.5	110
3	345445	47.7	120
3	347429	47.9	130
3	349189	48.1	140
3	351179	48.3	150
3	352966	48.5	160
3	354743	48.7	170
3	355911	48.9	180
3	357633	49.1	190
3	361567	49.482	200
3	361824	49.5	210
3	363765	49.7	220
3	365561	49.9	230
3	367390	50.1	240
3	368986	50.3	250
3	370960	50.5	250
3	370975	50.5	260
3	372511	50.7	270
3	374519	50.9	30
3	376454	51.1	40
3	378253	51.3	50
3	381445	51.686	60
3	381666	51.7	70
3	383567	51.9	80
3	386840	52.282	90
3	387079	52.3	100
3	389022	52.5	110
3	390810	52.7	120
3	392593	52.9	130
3	395263	53.286	140
3	395484	53.3	150
3	397865	53.5	160
3	399823	53.7	170
3	401425	53.9	180
3	403459	54.1	190
3	404971	54.3	200
3	406451	54.5	210
3	407895	54.7	220
3	409389	54.9	230
3	410812	55.1	240
3	411858	55.3	250
3	415579	55.5	250
3	415594	55.5	260
3	421596	56.303	20
3	421596	56.303	30
3	421596	56.303	40
3	421596	56.303	50
3	423980	56.5	60
3	425840	56.7	70
3	427319	56.9	80
3	430735	57.1	90
3	432364	57.3	100
3	434352	57.5	110
3	435821	57.7	120
3	437290	57.9	130
3	439710	58.1	140
3	441562	58.3	150
3	443032	58.5	160
3	445036	58.7	170
3	446738	58.9	180
3	448513	59.1	190
3	449993	59.3	200
3	453789	59.683	210
3	454024	59.7	220
3	455964	59.9	230
3	457789	60.1	240
3	459590	60.3	250
3	461359	60.5	250
3	461374	60.5	260
3	464359	60.886	20
3	464668	60.9	30
3	466834	61.1	40
3	468383	61.3	50
3	469871	61.5	60
3	472128	61.7	70
3	474041	61.9	80
3	475876	62.1	90
3	480344	62.771	100
3	480344	62.771	110
3	480344	62.771	120
3	481669	62.9	130
3	484670	63.1	140
3	486385	63.3	150
3	487605	63.5	160
3	488873	63.7	170
3	490801	63.9	180
3	492665	64.1	190
3	494630	64.3	200
3	496775	64.5	210
3	498163	64.7	220
3	500498	64.9	230
3	502776	65.1	240
3	505875	65.482	250
3	506116	65.5	250
3	506131	65.5	260
3	508213	65.7	270
3	509152	65.9	30
3	510336	66.1	40
3	512579	66.3	50
3	515363	66.5	60
3	517033	66.7	70
3	519282	66.9	80
3	521010	67.1	90
3	522484	67.3	100
3	526282	67.684	110
3	526521	67.7	120
3	528432	67.9	130
3	531575	68.282	140
3	531816	68.3	150
3	534997	68.683	160
3	535202	68.7	170
3	536826	68.9	180
3	538408	69.1	190
3	539594	69.3	200
3	543899	69.683	210
3	544248	69.7	220
3	546581	69.9	230
3	548420	70.1	240
3	550203	70.3	250
3	551974	70.5	250
3	551989	70.5	260
3	553340	70.7	270
3	555537	70.9	30
3	558913	71.29	40
3	559126	71.3	50
3	562477	71.684	60
3	562708	71.7	70
3	564617	71.9	80
3	567606	72.289	90
3	567805	72.3	100
3	569085	72.5	110
3	570523	72.7	120
3	571757	72.9	130
3	572927	73.1	140
3	574045	73.3	150
3	575162	73.5	160
3	579177	73.882	170
3	579372	73.9	180
3	581137	74.1	190
3	582575	74.3	200
3	583708	74.5	210
3	585200	74.7	220
3	586911	74.9	230
3	588208	75.1	240
3	589859	75.3	250
3	590968	75.5	250
3	592064	75.685	260
3	592331	75.7	270
3	593909	75.9	40
3	595641	76.1	50
3	597207	76.3	60
3	598645	76.5	70
3	599829	76.7	80
3	601444	76.9	90
3	603044	77.1	100
3	604490	77.3	110
3	606902	77.689	120
3	607131	77.7	130
3	608819	77.9	140
3	611405	78.282	150
3	611630	78.3	160
3	613217	78.5	170
3	614478	78.7	180
3	616125	78.9	190
3	617284	79.1	200
3	618951	79.3	210
3	621573	79.684	220
3	621788	79.7	230
3	623371	79.9	240
3	626877	80.421	250
3	626877	80.421	260
3	627552	80.5	260
3	627566	80.5	270
3	629247	80.7	270
3	630704	80.9	280
3	632187	81.1	40
3	633633	81.3	50
3	635071	81.5	60
3	636515	81.7	70
3	637953	81.9	80
3	639431	82.1	90
3	640867	82.3	100
3	642309	82.5	110
3	643757	82.7	120
3	645196	82.9	130
3	646368	83.1	140
3	649203	83.482	150
3	649424	83.5	160
3	651022	83.7	170
3	652465	83.9	180
3	653685	84.1	190
3	655088	84.3	200
3	656745	84.5	210
3	658329	84.7	220
3	659777	84.9	230
3	662365	85.288	240
3	662550	85.3	250
3	663843	85.5	250
3	663857	85.5	260
3	665070	85.7	270
3	667038	85.9	40
3	668640	86.1	50
3	669883	86.3	60
3	671522	86.5	70
3	672964	86.7	80
3	674400	86.9	90
3	675890	87.1	100
3	677143	87.3	110
3	678776	87.5	120
3	680216	87.7	130
3	681662	87.9	140
3	683148	88.1	150
3	684592	88.3	160
3	686028	88.5	170
3	687468	88.7	180
3	688906	88.9	190
3	690398	89.1	200
3	691832	89.3	210
3	693278	89.5	220
3	694716	89.7	230
3	695847	89.9	240
3	697542	90.1	250
3	699100	90.3	260
3	700532	90.5	260
3	700546	90.5	270
3	701829	90.7	270
3	703280	90.9	30
3	704661	91.1	40
3	706313	91.3	50
3	707870	91.5	60
3	709312	91.7	70
3	710756	91.9	80
3	712242	92.1	90
3	713680	92.3	100
3	715114	92.5	110
3	716371	92.7	120
3	718012	92.9	130
3	721053	93.38	140
3	721053	93.38	150
3	721868	93.5	160
3	723521	93.7	170
3	725333	93.9	180
3	726508	94.1	190
3	728167	94.3	200
3	730795	94.685	210
3	731006	94.7	220
3	732568	94.9	230
3	734095	95.1	240
3	735527	95.3	250
3	736963	95.5	250
3	736977	95.5	260
3	738457	95.7	270
3	739903	95.9	30
3	741389	96.1	40
3	742827	96.3	50
3	744277	96.5	60
3	745705	96.7	70
3	747149	96.9	80
3	748643	97.1	90
3	750071	97.3	100
3	751511	97.5	110
3	752953	97.7	120
3	754399	97.9	130
3	755885	98.1	140
3	757325	98.3	150
3	759805	98.681	160
3	760044	98.7	170
3	761651	98.9	180
3	762824	99.1	190
3	764481	99.3	200
3	766027	99.5	210
3	767471	99.7	220
3	768911	99.9	230
3	770407	100.1	240
3	771847	100.3	250
3	773261	100.5	250
3	773275	100.5	260
3	774757	100.7	270
3	775945	100.9	30
3	777326	101.1	40
3	779068	101.3	50
3	780628	101.5	60
3	781566	101.7	70
3	783422	101.9	80
3	785016	102.1	90
3	786450	102.3	100
3	787892	102.5	110
3	789023	102.7	120
3	790678	102.9	130
3	793055	103.281	140
3	793376	103.3	150
3	796242	103.682	160
3	796477	103.7	170
3	798068	103.9	180
3	799562	104.1	190
3	800990	104.3	200
3	802440	104.5	210
3	803886	104.7	220
3	805312	104.9	230
3	806495	105.1	240
3	809326	105.482	250
3	809535	105.5	250
3	809549	105.5	260
3	811170	105.7	270
3	812065	105.9	30
3	813876	106.1	40
3	815596	106.3	50
3	817030	106.5	60
3	818476	106.7	70
3	819918	106.9	80
3	821404	107.1	90
3	822840	107.3	100
3	824282	107.5	110
3	825728	107.7	120
3	827154	107.9	130
3	828642	108.1	140
3	830086	108.3	150
3	832606	108.683	160
3	832825	108.7	170
3	836111	109.126	180
3	836111	109.126	190
3	837244	109.3	200
3	838796	109.5	210
3	840246	109.7	220
3	841676	109.9	230
3	842855	110.1	240
3	844504	110.3	250
3	846040	110.5	250
3	846054	110.5	260
3	847233	110.7	270
3	848888	110.9	30
3	850232	111.1	40
3	851617	111.3	50
3	854512	111.684	60
3	854733	111.7	70
3	856310	111.9	80
3	857812	112.1	90
3	859065	112.3	100
3	860706	112.5	110
3	862144	112.7	120
3	863322	112.9	130
3	865021	113.1	140
3	866541	113.3	150
3	867967	113.5	160
3	870509	113.885	170
3	870716	113.9	180
3	872332	114.1	190
3	873795	114.3	200
3	875245	114.5	210
3	876677	114.7	220
3	878121	114.9	230
3	879597	115.1	240
3	881049	115.3	250
3	882473	115.5	250
3	882487	115.5	260
3	883973	115.7	270
3	885413	115.9	30
3	886901	116.1	40
3	888327	116.3	50
3	889517	116.5	60
3	891128	116.7	70
3	892684	116.9	80
3	893987	117.1	90
3	895618	117.3	100
3	898136	117.683	110
3	898357	117.7	120
3	899637	117.9	130
3	901094	118.1	140
3	902734	118.3	150
3	904366	118.5	160
3	906886	118.885	170
3	907097	118.9	180
3	908707	119.1	190
3	910174	119.3	200
3	911632	119.5	210
3	913068	119.7	220
3	914498	119.9	230
3	915982	120.1	240
3	917120	120.3	250
3	918760	120.5	250
3	918774	120.5	260
3	920364	120.7	270
3	921499	120.9	30
3	923114	121.1	40
3	924753	121.3	50
3	926196	121.5	60
3	927637	121.7	70
3	930078	122.084	80
3	930325	122.1	90
3	932028	122.3	100
3	933491	122.5	110
3	934624	122.7	120
3	936263	122.9	130
3	937680	123.1	140
3	939325	123.3	150
3	940763	123.5	160
3	942211	123.7	170
3	943387	123.9	180
3	944728	124.1	190
3	947353	124.484	200
3	947532	124.5	210
3	949331	124.7	220
3	951028	124.9	230
3	952522	125.1	240
3	953950	125.3	250
3	955079	125.5	250
3	955093	125.5	260
3	956778	125.7	270
3	958078	125.9	40
3	959225	126.1	50
3	960630	126.3	60
3	962794	126.5	70
3	964242	126.7	80
3	965666	126.9	90
3	967166	127.1	100
3	968604	127.3	110
3	970038	127.5	120
3	971482	127.7	130
3	972721	127.9	140
3	974412	128.1	150
3	975665	128.3	160
3	977304	128.5	170
3	978738	128.7	180
3	980192	128.9	190
3	981666	129.1	200
3	983104	129.3	210
3	984189	129.5	220
3	985282	129.7	230
3	986377	129.9	240
3	987523	130.1	250
3	988622	130.3	260
3	989699	130.5	260
3	989712	130.5	270
3	990565	130.7	20
3	991848	130.9	30
3	993099	131.1	40
3	994186	131.3	50
3	995287	131.5	60
3	996384	131.7	70
3	997471	131.9	80
3	998610	132.1	90
3	999711	132.3	100
3	1000804	132.5	110
3	1001899	132.7	120
3	1002990	132.9	130
3	1004133	133.1	140
3	1005234	133.3	150
3	1006327	133.5	160
3	1007428	133.7	170
3	1008515	133.9	180
3	1009662	134.1	190
3	1010491	134.3	200
3	1011780	134.5	210
3	1012969	134.7	220
3	1013796	134.9	230
3	1014925	135.1	240
3	1016318	135.3	250
3	1017401	135.5	250
3	1017414	135.5	260
3	1018537	135.7	20
3	1019636	135.9	30
3	1020773	136.1	40
3	1021868	136.3	50
3	1022959	136.5	60
3	1024054	136.7	70
3	1025157	136.9	80
3	1026294	137.1	90
3	1027082	137.3	100
3	1028227	137.5	110
3	1029603	137.7	120
3	1030698	137.9	130
3	1031841	138.1	140
3	1032924	138.3	150
3	1033454	138.5	160
3	1034783	138.7	170
3	1036246	138.9	180
3	1037381	139.1	190
3	1038220	139.3	200
3	1039491	139.5	210
3	1040424	139.7	220
3	1041467	139.9	230
3	1042812	140.1	240
3	1043807	140.3	250
3	1045098	140.5	250
3	1045985	140.684	10
3	1046163	140.7	20
3	1047129	140.9	30
3	1049358	141.288	40
3	1049524	141.3	50
3	1050744	141.5	60
3	1051877	141.7	70
3	1052966	141.9	80
3	1054119	142.1	90
3	1055206	142.3	100
3	1056043	142.5	110
3	1057096	142.7	120
3	1058525	142.9	130
3	1059658	143.1	140
3	1060761	143.3	150
3	1061854	143.5	160
3	1063723	143.886	170
3	1063891	143.9	180
3	1065155	144.1	190
3	1066280	144.3	200
3	1067385	144.5	210
3	1068466	144.7	220
3	1069307	144.9	230
3	1070640	145.1	240
3	1071837	145.3	250
3	1072605	145.5	250
3	1073611	145.683	20
3	1074811	145.886	30
3	1075004	145.9	40
3	1076292	146.1	50
3	1077421	146.3	60
3	1078512	146.5	70
3	1080389	146.883	80
3	1080559	146.9	90
3	1081849	147.1	100
3	1082958	147.3	110
3	1084049	147.5	120
3	1085138	147.7	130
3	1086233	147.9	140
3	1087378	148.1	150
3	1088479	148.3	160
3	1089566	148.5	170
3	1090661	148.7	180
3	1091756	148.9	190
3	1092903	149.1	200
3	1094758	149.482	210
3	1094934	149.5	220
3	1096187	149.7	230
3	1097287	149.9	240
3	1098426	150.1	250
3	1100301	150.491	260
3	1100463	150.5	260
3	1100476	150.5	270
3	1101444	150.7	20
3	1102467	150.9	30
3	1103916	151.1	40
3	1105889	151.482	50
3	1106079	151.5	60
3	1108097	151.883	70
3	1108271	151.9	80
3	1109299	152.1	90
3	1110594	152.3	100
3	1111791	152.5	110
3	1112577	152.7	120
3	1113875	152.9	130
3	1114874	153.1	140
3	1117027	153.482	150
3	1117195	153.5	160
3	1118448	153.7	170
3	1119554	153.9	180
3	1120681	154.1	190
3	1121780	154.3	200
3	1122875	154.5	210
3	1124754	154.887	220
3	1124914	154.9	230
3	1126182	155.1	240
3	1127029	155.3	250
3	1128330	155.5	250
3	1128343	155.5	260
3	1129548	155.7	20
3	1130647	155.9	30
3	1131786	156.1	40
3	1132881	156.3	50
3	1133405	156.5	60
3	1134742	156.7	70
3	1136201	156.9	80
3	1137338	157.1	90
3	1138918	157.483	100
3	1139110	157.5	110
3	1140640	157.7	120
3	1141746	157.9	130
3	1142889	158.1	140
3	1143673	158.3	150
3	1144979	158.5	160
3	1146192	158.7	170
3	1147283	158.9	180
3	1148430	159.1	190
3	1149515	159.3	200
3	1150628	159.5	210
3	1151709	159.7	220
3	1152808	159.9	230
3	1153951	160.1	240
3	1155486	160.5	240
3	1156198	160.574	10
3	1156198	160.574	20
3	1157020	160.7	30
3	1158393	160.9	40
3	1159538	161.1	50
3	1160637	161.3	60
3	1161730	161.5	70
3	1162829	161.7	80
3	1163912	161.9	90
3	1165060	162.1	100
3	1166154	162.3	110
3	1167253	162.5	120
3	1168348	162.7	130
3	1170183	163.082	140
3	1170331	163.1	150
3	1171695	163.3	160
3	1172790	163.5	170
3	1173586	163.7	180
3	1174882	163.9	190
3	1176145	164.1	200
3	1176974	164.3	210
3	1178263	164.5	220
3	1180216	164.883	230
3	1180386	164.9	240
3	1181680	165.1	250
3	1182791	165.3	260
3	1183876	165.5	260
3	1183889	165.5	270
3	1185008	165.7	20
3	1185790	165.9	30
3	1187144	166.1	40
3	1188351	166.3	50
3	1189188	166.5	60
3	1191012	166.883	70
3	1191170	166.9	80
3	1192663	167.1	90
3	1193966	167.3	100
3	1195061	167.5	110
3	1196162	167.7	120
3	1198095	168.094	130
3	1198245	168.1	140
3	1199461	168.3	150
3	1201717	168.774	160
3	1201717	168.774	170
3	1202517	168.9	180
3	1203948	169.1	190
3	1205821	169.486	200
3	1205985	169.5	210
3	1207208	169.7	220
3	1208340	169.9	230
3	1209473	170.1	240
3	1210580	170.3	250
3	1211665	170.5	250
3	1211678	170.5	260
3	1212793	170.7	20
3	1213888	170.9	30
3	1215025	171.1	40
3	1215852	171.3	50
3	1216844	171.5	60
3	1218241	171.7	70
3	1219449	171.9	80
3	1221364	172.284	90
3	1221540	172.3	100
3	1222781	172.5	110
3	1223887	172.7	120
3	1224986	172.9	130
3	1226127	173.1	140
3	1227224	173.3	150
3	1228315	173.5	160
3	1230166	173.883	170
3	1230348	173.9	180
3	1231633	174.1	190
3	1232751	174.3	200
3	1233848	174.5	210
3	1235717	174.883	220
3	1235887	174.9	230
3	1237184	175.1	240
3	1238280	175.3	250
3	1239032	175.5	250
3	1239044	175.5	260
3	1239810	175.7	270
3	1241066	176.083	280
3	1241201	176.1	290
3	1242109	176.3	300
3	1247996	178.657	310
3	1247996	178.657	320
3	1247996	178.657	330
3	1247996	178.657	340
3	1249546	178.839	350
3	1249546	178.839	360
3	1249546	178.839	370
3	1251116	179.021	380
3	1251116	179.021	390
3	1251116	179.021	400
3	1251116	179.021	410
3	1251116	179.021	420
3	1251116	179.021	430
3	1252578	179.1	440
3	1254394	179.3	450
3	1255584	179.5	460
3	1256746	179.7	470
3	1257929	179.9	480
3	1259173	180.1	490
3	1260351	180.3	500
3	1261591	180.5	500
3	1261603	180.5	510
3	1263070	180.7	520
3	1264743	180.9	530
3	1268807	181.1	540
3	1272125	181.3	550
3	1273962	181.5	560
3	1275664	181.7	570
3	1277308	181.9	580
3	1278993	182.1	590
3	1280334	182.3	600
3	1282343	182.5	610
3	1285383	182.883	620
3	1285540	182.9	630
3	1287522	183.1	640
3	1291872	183.3	650
3	1294635	183.5	660
3	1296594	183.7	670
3	1300298	184.086	680
3	1300557	184.1	690
3	1302494	184.3	700
3	1304214	184.5	710
3	1311461	184.7	720
3	1315077	184.9	730
3	1320973	185.1	740
3	1325304	185.3	750
3	1327187	185.5	750
3	1327199	185.5	760
3	1329733	185.7	770
3	1331852	185.9	100
3	1333656	186.1	110
3	1335136	186.3	120
3	1336575	186.5	130
3	1338024	186.7	140
3	1339129	186.9	150
3	1344170	188.8	160
3	1344170	188.8	170
3	1344170	188.8	180
3	1349061	189.134	190
3	1349061	189.134	200
3	1349061	189.134	210
3	1349061	189.134	220
3	1349061	189.134	230
3	1349061	189.134	240
3	1349061	189.134	250
3	1349061	189.134	260
3	1352438	189.3	270
3	1355446	189.5	240
3	1359137	189.7	250
3	1361354	189.9	260
3	1362856	190.1	270
3	1364008	190.3	280
3	1365494	190.5	280
3	1365505	190.5	290
3	1367224	190.7	270
3	1370269	191.231	170
3	1370269	191.231	180
3	1370752	191.3	190
3	1372789	191.5	200
3	1374472	191.7	210
3	1375678	191.9	220
3	1377254	192.1	230
3	1378634	192.3	240
3	1380137	192.5	250
3	1381842	192.7	260
3	1383288	192.9	270
3	1384764	193.1	280
3	1385892	193.3	290
3	1387427	193.5	300
3	1389106	193.7	310
3	1390546	193.9	320
3	1392027	194.1	330
3	1393476	194.3	340
3	1394922	194.5	210
3	1395749	194.7	220
3	1397525	194.9	230
3	1400890	195.434	240
3	1400890	195.434	250
3	1401371	195.5	250
3	1403864	195.832	80
3	1403864	195.832	90
3	1404353	195.9	100
3	1405934	196.1	110
3	1407560	196.3	120
3	1409329	196.5	130
3	1410840	196.7	140
3	1412539	196.9	150
3	1414031	197.1	160
3	1415471	197.3	170
3	1419037	197.831	180
3	1419037	197.831	190
16	1262633	180.64	310
16	1265212	180.929	320
16	1271618	181.218	330
16	1274056	181.5	340
16	1276625	181.787	350
16	1278749	182.072	360
16	1281159	182.353	370
16	1283624	182.638	380
16	1286093	182.921	390
16	1288363	183.201	400
16	1288363	183.201	410
16	1288363	183.201	420
16	1288363	183.201	430
16	1288363	183.201	440
16	1288363	183.201	450
16	1288363	183.201	460
16	1288363	183.201	470
16	1288363	183.201	480
16	1288363	183.201	490
16	1288363	183.201	500
16	1288363	183.201	510
16	1288363	183.201	520
16	1288363	183.201	530
16	1294446	183.483	540
16	1297317	183.765	550
16	1297317	183.765	560
16	1299970	184.047	570
16	1302996	184.333	580
16	1302996	184.333	590
16	1307748	184.613	600
16	1307748	184.613	610
16	1307748	184.613	620
16	1307748	184.613	630
16	1307748	184.613	640
16	1307748	184.613	650
16	1307748	184.613	660
16	1307748	184.613	670
16	1307748	184.613	680
16	1312252	184.713	690
16	1312252	184.713	700
16	1322330	185.135	710
16	1322330	185.135	720
16	1322330	185.135	730
16	1322330	185.135	740
16	1325307	185.3	750
16	1327185	185.5	750
16	1327202	185.5	760
16	1329736	185.7	90
16	1331855	185.9	100
16	1333658	186.1	110
16	1335138	186.3	120
16	1336577	186.5	130
16	1338026	186.7	140
16	1346001	188.933	150
16	1346001	188.933	160
16	1346001	188.933	170
16	1346001	188.933	180
16	1351522	189.244	150
16	1351522	189.244	160
16	1356480	189.579	170
16	1356480	189.579	180
16	1356480	189.579	190
16	1356480	189.579	200
16	1356480	189.579	210
16	1356480	189.579	220
16	1356480	189.579	230
16	1356480	189.579	240
16	1359139	189.7	250
16	1361356	189.9	260
16	1364931	190.433	270
16	1364931	190.433	280
16	1365492	190.5	280
16	1365507	190.5	290
16	1367226	190.7	160
16	1368670	190.9	170
16	1369579	191.1	180
16	1370754	191.3	190
16	1372791	191.5	200
16	1376653	192.031	210
16	1376653	192.031	220
16	1379563	192.433	230
16	1379563	192.433	240
16	1380139	192.5	250
16	1381844	192.7	260
16	1383290	192.9	270
16	1384766	193.1	280
16	1385894	193.3	290
16	1387429	193.5	300
16	1389108	193.7	310
16	1390548	193.9	320
16	1392029	194.1	330
16	1393478	194.3	200
16	1394924	194.5	210
16	1395751	194.7	220
16	1397527	194.9	230
16	1399005	195.1	240
16	1400083	195.3	250
16	1401369	195.5	250
16	1404800	195.942	80
16	1404800	195.942	90
16	1407219	196.272	100
16	1407219	196.272	110
16	1410262	196.632	120
16	1410262	196.632	130
16	1410842	196.7	140
16	1412541	196.9	150
16	1414033	197.1	160
16	1415473	197.3	170
16	1416905	197.5	180
16	1418089	197.7	190
16	1419580	197.9	200
16	1421009	198.1	210
16	1422110	198.3	220
16	1423203	198.5	230
16	1424291	198.7	240
16	1425394	198.9	250
16	1427588	200.5	180
16	1430471	200.8	10
16	1430471	200.8	20
16	1430471	200.8	30
16	1430471	200.8	40
16	1430471	200.8	50
16	1430471	200.8	60
16	1430471	200.8	70
16	1430471	200.8	80
16	1430471	200.8	90
16	1434524	200.9	100
16	1437624	201.1	110
16	1438730	201.3	120
16	1439826	201.5	130
16	1440917	201.7	140
16	1442016	201.9	150
16	1443153	202.1	160
16	1444246	202.3	170
16	1445351	202.5	180
16	1446434	202.7	190
16	1447542	202.9	200
16	1448680	203.1	210
16	1449769	203.3	220
16	1450868	203.5	230
16	1451967	203.7	240
16	1453056	203.9	250
16	1454192	204.1	260
16	1455309	204.3	270
16	1456396	204.5	280
16	1457181	204.7	290
16	1458360	204.9	300
16	1459745	205.1	310
16	1460838	205.3	320
16	1461920	205.5	320
16	1461933	205.5	330
16	1462734	205.7	90
16	1465032	206.194	100
16	1465032	206.194	110
16	1465908	206.3	120
16	1468845	206.794	130
16	1468845	206.794	140
16	1469559	206.9	150
16	1470876	207.1	160
16	1471971	207.3	170
16	1473068	207.5	180
16	1474157	207.7	190
16	1474938	207.9	200
16	1476173	208.1	210
16	1477215	208.3	220
16	1478557	208.5	230
16	1479710	208.7	240
16	1482204	209.197	180
16	1482204	209.197	190
16	1482914	209.3	200
16	1484181	209.5	210
16	1486630	209.996	220
16	1486630	209.996	230
16	1487384	210.1	240
16	1488659	210.3	250
16	1489737	210.5	250
16	1489750	210.5	260
16	1490861	210.7	90
16	1491956	210.9	100
16	1493107	211.1	110
16	1495318	211.594	120
16	1495318	211.594	130
16	1495922	211.7	140
16	1497271	211.9	150
16	1498361	212.1	160
16	1499429	212.3	170
16	1502270	212.798	180
16	1502270	212.798	190
16	1502972	212.9	200
16	1504291	213.1	210
16	1505384	213.3	220
16	1506473	213.5	230
16	1507568	213.7	240
16	1510050	214.195	180
16	1510050	214.195	190
16	1510758	214.3	200
16	1511736	214.5	210
16	1513078	214.7	220
16	1514239	214.9	230
16	1515378	215.1	240
16	1517274	215.5	240
16	1517807	215.595	250
16	1517807	215.595	260
16	1518527	215.7	90
16	1519509	215.9	100
16	1522297	216.396	110
16	1524009	216.715	120
16	1524009	216.715	130
16	1524009	216.715	140
16	1525247	216.9	150
16	1526540	217.1	160
16	1527635	217.3	170
16	1528740	217.5	180
16	1531155	217.994	190
16	1531155	217.994	200
16	1533234	218.397	210
16	1533234	218.397	220
16	1533829	218.5	230
16	1535083	218.7	240
16	1536487	218.9	250
16	1537689	219.1	260
16	1538796	219.3	210
16	1541213	219.793	220
16	1541213	219.793	230
16	1541923	219.9	240
16	1543242	220.1	250
16	1544343	220.3	260
16	1545421	220.5	260
16	1545434	220.5	270
16	1546231	220.7	90
16	1547416	220.9	100
16	1550119	221.396	110
16	1550119	221.396	120
16	1550833	221.5	130
16	1551796	221.7	140
16	1552977	221.9	150
16	1554352	222.1	160
16	1555461	222.3	170
16	1556552	222.5	180
16	1557639	222.7	190
16	1558455	222.9	200
16	1559841	223.1	210
16	1560984	223.3	220
16	1561798	223.5	230
16	1563144	223.7	240
16	1565676	224.196	180
16	1565676	224.196	190
16	1566386	224.3	200
16	1567058	224.5	210
16	1568490	224.7	220
16	1569891	224.9	230
16	1571031	225.1	240
16	1572922	225.5	240
16	1573461	225.596	250
16	1573461	225.596	260
16	1574183	225.7	90
16	1575442	225.9	100
16	1576593	226.1	110
16	1577684	226.3	120
16	1578781	226.5	130
16	1579878	226.7	140
16	1580969	226.9	150
16	1582114	227.1	160
16	1583209	227.3	170
16	1584307	227.5	180
16	1585395	227.7	190
16	1586492	227.9	200
16	1587625	228.1	210
16	1588726	228.3	220
16	1589827	228.5	230
16	1590920	228.7	240
16	1591716	228.9	250
16	1593105	229.1	260
16	1594274	229.3	210
16	1595371	229.5	220
16	1597599	229.995	230
16	1598540	230.268	240
16	1598540	230.268	250
16	1598864	230.3	260
16	1600091	230.5	260
16	1600104	230.5	270
[...]
14	3087452	484.454	9.754
14	3087459	484.454	9.554
14	3087567	484.455	16.355
14	3087590	484.455	14.355
14	3087594	484.455	14.155
14	3087596	484.455	13.955
14	3087599	484.455	13.755
14	3087621	484.455	12.155
14	3087624	484.455	11.755
14	3087633	484.455	11.155
14	3087646	484.455	10.155
14	3087740	484.456	15.956
14	3087742	484.456	15.756
14	3087776	484.456	11.956
14	3088017	484.457	16.557
14	3088132	484.457	12.557
14	3088379	484.458	11.558
14	3088387	484.458	10.958
14	3088394	484.458	10.758
14	3088473	484.459	16.159
14	3088617	484.461	14.761
14	3088628	484.461	10.561
14	3101577	484.799	8.499
14	3101652	484.8	9.7
14	3101656	484.8	9.3
14	3101660	484.8	9.1
14	3101664	484.8	8.9
14	3101675	484.8	8.1
14	3101733	484.801	9.501
14	3101743	484.801	8.701
14	3101868	484.802	7.902
14	3101935	484.803	8.303
14	3109805	485.139	8.039
14	3109855	485.14	7.84
14	3117072	485.479	7.779
14	3117079	485.479	7.579
14	3117126	485.48	7.38
14	3117166	485.481	7.981
14	3117174	485.481	7.181
14	3126243	485.818	6.918
14	3126249	485.818	6.718
14	3126259	485.818	6.318
14	3126263	485.818	6.118
14	3126268	485.818	5.718
14	3126369	485.819	7.119
14	3126379	485.819	6.519
14	3126394	485.819	5.519
14	3126403	485.819	4.919
14	3126459	485.82	7.32
14	3126477	485.82	5.32
14	3126482	485.82	4.72
14	3126624	485.821	5.921
14	3126899	485.827	5.127
14	3135810	486.158	4.858
14	3144906	486.497	4.997
14	3144918	486.497	4.397
14	3144934	486.497	3.597
14	3144941	486.497	3.197
14	3144947	486.497	2.997
14	3144958	486.497	2.597
14	3145041	486.498	4.198
14	3145047	486.498	3.798
14	3145058	486.498	2.798
14	3145132	486.499	4.599
14	3145145	486.499	3.399
14	3145158	486.499	2.399
14	3145345	486.5	4.8
14	3145417	486.5	2
14	3145423	486.5	1.8
14	3145492	486.501	4.001
14	3146403	486.524	2.224
14	3156439	486.835	1.935
14	3156457	486.835	0.735
14	3156461	486.835	0.535
14	3156467	486.835	0.335
14	3156517	486.836	1.536
14	3156525	486.836	0.936
14	3156669	486.838	1.338
14	3156743	486.839	1.739
14	3156754	486.839	1.139
14	3159543	486.926	0.226
14	3164888	487.126	0.226
14	3169514	487.325	0.225
14	3174241	487.526	0.226
14	3179014	487.726	0.226
14	3183838	487.925	0.225
14	3188761	488.126	0.226
14	3193632	488.326	0.226
14	3198696	488.527	0.227
14	3203811	488.728	0.228
14	3208790	488.925	0.225
14	3213978	489.126	0.226
14	3219210	489.327	0.227
14	3224541	489.53	0.23
14	3229733	489.726	0.226
14	3235172	489.926	0.226
14	3240638	490.128	0.228
14	3246051	490.326	0.226
14	3251599	490.526	0.226
14	3257165	490.725	0.225
14	3262804	490.925	0.225
14	3268686	491.128	0.228
14	3274305	491.325	0.225
14	3280184	491.526	0.226
14	3285969	491.725	0.225
14	3301783	492.264	0.364
14	3301818	492.265	0.565
14	3303820	492.325	0.225
14	3310662	492.525	0.225
14	3317495	492.726	0.226
14	3324251	492.926	0.226
14	3331138	493.125	0.225
14	3338063	493.327	0.227
14	3356638	493.868	0.568
14	3356643	493.868	0.368
14	3358998	493.925	0.225
14	3366428	494.126	0.226
14	3373660	494.327	0.227
14	3380927	494.527	0.227
14	3388268	494.726	0.226
14	3407867	495.264	0.564
14	3408009	495.267	0.367
14	3410727	495.333	0.233
14	3418135	495.525	0.225
14	3425792	495.725	0.225
14	3434046	495.929	0.229
14	3441741	496.126	0.226
14	3462815	496.674	0.374
14	3462851	496.675	0.575
14	3464914	496.726	0.226
14	3473195	496.925	0.225
14	3481458	497.127	0.227
14	3489711	497.326	0.226
14	3498034	497.526	0.226
14	3506359	497.725	0.225
14	3514805	497.926	0.226
14	3523781	498.13	0.23
14	3532320	498.325	0.225
14	3541289	498.527	0.227
14	3550043	498.726	0.226
14	3559253	498.927	0.227
14	3568097	499.125	0.225
14	3577420	499.326	0.226
14	3622586	500.625	1.325
14	3622592	500.625	1.125
14	3622600	500.625	0.525
14	3622662	500.626	0.926
14	3622667	500.626	0.726
14	3622673	500.626	0.326
14	3626628	500.725	0.225
14	3633780	500.925	0.225
14	3640565	501.126	0.226
14	3647486	501.326	0.226
14	3654465	501.527	0.227
14	3675169	502.064	0.564
14	3675203	502.065	0.365
14	3678911	502.125	0.225
14	3709715	502.67	0.37
14	3712204	502.689	0.589
14	3735030	503.064	0.564
14	3735571	503.075	0.375
14	3743179	503.125	0.225
14	3757879	503.327	0.227
14	3768271	503.525	0.225
14	3794837	504.068	0.568
14	3795068	504.075	0.375
14	3796679	504.125	0.225
14	3800972	504.325	0.225
14	3804726	504.531	0.231
14	3808404	504.726	0.226
14	3812124	504.927	0.227
14	3815880	505.127	0.227
14	3819561	505.325	0.225
14	3823326	505.525	0.225
14	3827098	505.725	0.225
14	3831091	505.935	0.235
14	3834776	506.125	0.225
14	3838559	506.325	0.225
14	3842509	506.53	0.23
14	3846215	506.725	0.225
14	3850091	506.925	0.225
14	3854072	507.126	0.226
14	3857958	507.326	0.226
14	3861873	507.53	0.23
14	3866099	507.725	0.225
14	3870875	507.927	0.227
14	3876088	508.125	0.225
14	3880963	508.327	0.227
14	3887259	508.525	0.225
14	3892987	508.726	0.226
14	3902723	508.927	0.227
14	3913434	509.125	0.225
14	3919775	509.325	0.225
14	3926050	509.526	0.226
14	3933965	509.84	0.34
14	3939580	510.04	0.34
14	3942781	510.128	0.228
14	3950656	510.326	0.226
14	3958111	510.526	0.226
14	3963733	510.727	0.227
14	3969959	510.928	0.228
14	3977752	511.126	0.226
14	3988874	511.329	0.229
14	3998365	511.526	0.226
14	4008128	511.726	0.226
14	4019529	511.927	0.227
14	4025888	512.125	0.225
14	4033296	512.339	0.239
14	4038039	512.529	0.229
14	4046763	512.841	0.341
14	4054816	513.041	0.341
14	4062367	513.243	0.343
14	4072253	513.44	0.34
14	4076574	513.604	0.304
14	4078217	513.726	0.226
14	4080339	513.926	0.226
14	4082342	514.125	0.225
14	4084432	514.336	0.236
14	4086306	514.525	0.225
14	4088310	514.727	0.227
14	4090391	514.934	0.234
14	4092651	515.152	0.252
14	4094367	515.326	0.226
14	4096427	515.527	0.227
14	4098295	515.726	0.226
14	4100225	515.927	0.227
14	4102439	516.125	0.225
14	4104890	516.35	0.25
14	4106712	516.526	0.226
14	4108728	516.725	0.225
14	4111646	517.039	0.339
14	4113571	517.24	0.34
14	4117701	517.697	0.597
14	4117981	517.702	0.402
14	4118243	517.726	0.226
14	4121381	517.925	0.225
14	4123595	518.125	0.225
14	4125803	518.33	0.23
14	4127922	518.529	0.229
14	4130064	518.728	0.228
14	4132182	518.926	0.226
14	4134333	519.125	0.225
14	4136941	519.364	0.264
14	4138734	519.526	0.226
14	4140917	519.726	0.226
14	4143036	519.935	0.235
14	4145149	520.125	0.225
14	4147485	520.325	0.225
14	4150657	520.644	0.344
14	4152799	520.847	0.347
14	4153869	520.925	0.225
14	4156452	521.126	0.226
14	4158714	521.326	0.226
14	4161034	521.535	0.235
14	4163240	521.728	0.228
14	4165488	521.927	0.227
14	4167828	522.129	0.229
14	4170043	522.325	0.225
14	4172318	522.526	0.226
14	4174639	522.726	0.226
14	4176922	522.925	0.225
14	4179301	523.126	0.226
14	4181615	523.327	0.227
14	4183904	523.526	0.226
14	4186235	523.727	0.227
14	4188393	523.925	0.225
14	4190808	524.127	0.227
14	4193251	524.326	0.226
14	4195540	524.525	0.225
14	4197779	524.725	0.225
14	4200143	524.932	0.232
14	4203686	525.241	0.341
14	4206038	525.442	0.342
14	4207143	525.525	0.225
14	4209786	525.727	0.227
14	4212323	525.929	0.229
14	4214742	526.125	0.225
14	4217124	526.325	0.225
14	4219587	526.526	0.226
14	4222979	526.839	0.339
14	4225144	527.039	0.339
14	4227597	527.239	0.339
14	4229993	527.416	0.316
14	4231808	527.526	0.226
14	4234372	527.726	0.226
14	4236856	527.928	0.228
14	4239201	528.125	0.225
14	4241645	528.325	0.225
14	4244359	528.526	0.226
14	4246840	528.726	0.226
14	4249372	528.926	0.226
14	4251940	529.126	0.226
14	4255525	529.442	0.342
14	4257670	529.64	0.34
14	4260500	529.84	0.34
14	4263038	530.04	0.34
14	4264294	530.125	0.225
14	4267056	530.325	0.225
14	4270918	530.641	0.341
14	4273426	530.841	0.341
14	4274780	530.926	0.226
14	4277631	531.125	0.225
14	4280304	531.33	0.23
14	4282845	531.525	0.225
14	4285318	531.725	0.225
14	4287963	531.925	0.225
14	4290823	532.127	0.227
14	4293530	532.33	0.23
14	4296111	532.526	0.226
14	4298738	532.725	0.225
14	4302578	533.039	0.339
14	4305231	533.243	0.343
14	4306576	533.327	0.227
14	4309665	533.537	0.237
14	4312192	533.725	0.225
14	4314758	533.925	0.225
14	4317346	534.125	0.225
14	4320250	534.327	0.227
14	4324236	534.64	0.34
14	4326636	534.839	0.339
14	4328353	534.926	0.226
14	4331361	535.126	0.226
14	4334103	535.326	0.226
14	4336837	535.525	0.225
14	4339686	535.728	0.228
14	4342423	535.926	0.226
14	4345221	536.125	0.225
14	4349200	536.44	0.34
14	4351133	536.64	0.34
14	4352014	536.84	0.34
14	4352487	537.039	0.339
14	4352918	537.239	0.339
14	4353381	537.441	0.341
14	4353806	537.64	0.34
14	4369159	557.839	20.139
14	4369231	557.84	19.34
14	4369235	557.84	19.14
14	4369239	557.84	18.94
14	4369328	557.841	19.741
14	4369398	557.842	20.342
14	4369403	557.842	19.942
14	4369412	557.842	19.542
14	4369449	557.843	18.743
14	4384586	577.604	38.304
14	4384619	577.605	38.105
14	4384630	577.606	37.906
14	4414666	589.601	49.501
14	4414675	589.601	49.301
14	4414751	589.604	49.704
14	4416473	589.775	49.275
14	4416580	589.778	49.078
14	4420969	589.956	49.056
14	4421005	589.957	48.857
14	4426297	590.129	48.829
14	4426306	590.129	48.429
14	4426332	590.129	47.029
14	4426337	590.129	46.829
14	4426364	590.129	45.229
14	4426626	590.13	48.63
14	4426648	590.13	48.23
14	4426673	590.13	47.63
14	4426718	590.13	46.63
14	4426730	590.13	46.43
14	4426738	590.13	46.23
14	4426760	590.13	45.83
14	4426801	590.13	45.03
14	4426826	590.13	44.43
14	4426961	590.131	48.031
14	4427005	590.131	46.031
14	4427033	590.131	44.631
14	4427123	590.132	47.432
14	4427125	590.132	47.232
14	4427205	590.133	47.833
14	4427220	590.133	44.833
14	4427263	590.134	45.634
14	4427297	590.135	45.435
14	4429172	590.305	44.005
14	4429200	590.306	44.206
14	4429239	590.308	44.408
14	4432911	590.522	43.822
14	4432987	590.523	44.023
14	4433098	590.524	43.024
14	4433127	590.525	43.625
14	4433198	590.528	43.228
14	4433212	590.53	43.43
14	4438159	590.701	42.801
14	4438181	590.702	43.002
14	4443918	590.88	42.18
14	4443925	590.88	41.78
14	4443935	590.88	41.58
14	4443956	590.88	40.58
14	4443971	590.88	39.78
14	4443986	590.88	38.98
14	4443994	590.88	38.78
14	4444001	590.88	38.58
14	4444008	590.88	38.18
14	4444017	590.88	37.78
14	4444297	590.881	42.381
14	4444309	590.881	41.981
14	4444341	590.881	41.381
14	4444352	590.881	41.181
14	4444391	590.881	40.381
14	4444407	590.881	39.981
14	4444423	590.881	39.581
14	4444438	590.881	39.181
14	4444662	590.882	40.982
14	4444678	590.882	40.182
14	4444712	590.882	38.382
14	4444796	590.883	42.783
14	4444800	590.883	42.583
14	4444985	590.885	39.385
14	4444988	590.885	37.985
14	4445332	590.907	40.807
14	4447441	591.055	37.755
14	4451155	591.232	37.532
14	4451161	591.232	37.332
14	4451241	591.233	37.733
14	4451265	591.233	37.133
14	4451325	591.234	36.934
14	4457310	591.407	35.307
14	4457427	591.408	36.908
14	4457437	591.408	36.708
14	4457456	591.408	36.308
14	4457465	591.408	36.108
14	4457474	591.408	35.908
14	4457580	591.409	36.509
14	4457606	591.409	35.509
14	4457615	591.409	35.109
14	4457677	591.411	35.711
14	4463471	591.582	34.682
14	4463484	591.582	34.082
14	4463511	591.582	32.882
14	4463514	591.582	32.682
14	4463811	591.583	33.683
14	4463868	591.583	32.483
14	4463892	591.583	31.883
14	4463908	591.583	31.483
14	4463916	591.583	31.283
14	4464059	591.584	35.084
14	4464065	591.584	34.884
14	4464077	591.584	34.484
14	4464080	591.584	34.284
14	4464103	591.584	33.084
14	4464132	591.584	32.084
14	4464142	591.584	31.684
14	4464234	591.585	33.485
14	4464237	591.585	33.285
14	4464347	591.586	30.886
14	4464389	591.587	33.887
14	4464394	591.587	32.287
14	4464444	591.589	31.089
14	4469632	591.758	30.658
14	4469639	591.758	30.258
14	4469725	591.759	30.459
14	4469742	591.759	30.059
14	4469829	591.761	30.861
14	4474987	591.935	29.435
14	4475045	591.935	26.435
14	4475059	591.935	25.835
14	4475280	591.936	29.636
14	4475310	591.936	28.836
14	4475322	591.936	28.436
14	4475330	591.936	28.236
14	4475340	591.936	28.036
14	4475347	591.936	27.836
14	4475360	591.936	27.436
14	4475370	591.936	27.236
14	4475375	591.936	27.036
14	4475391	591.936	26.636
14	4475418	591.936	26.036
14	4475564	591.937	29.237
14	4475602	591.937	27.637
14	4475618	591.937	26.837
14	4475629	591.937	26.237
14	4475712	591.938	29.038
14	4475717	591.938	28.638
14	4475799	591.939	29.839
14	4475874	591.94	25.64
14	4475898	591.941	30.041
14	4489688	593.177	25.077
14	4489794	593.178	26.478
14	4489803	593.178	26.278
14	4489810	593.178	26.078
14	4489829	593.178	25.678
14	4489848	593.178	25.278
14	4489932	593.179	25.879
14	4489954	593.179	24.879
14	4490055	593.182	25.482
14	4494002	593.532	24.832
14	4500035	593.709	24.809
14	4507235	593.889	24.589
14	4507252	593.889	23.789
14	4507259	593.889	23.389
14	4507280	593.889	22.389
14	4507298	593.889	21.589
14	4507302	593.889	21.389
14	4507320	593.889	19.989
14	4507346	593.889	18.789
14	4507681	593.89	24.79
14	4507699	593.89	24.39
14	4507719	593.89	23.99
14	4507765	593.89	22.99
14	4507776	593.89	22.59
14	4507807	593.89	21.99
14	4507817	593.89	21.79
14	4507856	593.89	20.99
14	4507867	593.89	20.79
14	4507898	593.89	20.19
14	4507913	593.89	19.79
14	4507924	593.89	19.59
14	4507938	593.89	19.19
14	4507981	593.89	18.19
14	4508203	593.891	23.191
14	4508212	593.891	22.791
14	4508226	593.891	22.191
14	4508264	593.891	20.591
14	4508272	593.891	20.391
14	4508302	593.891	18.991
14	4508314	593.891	18.591
14	4508319	593.891	18.391
14	4508420	593.892	24.192
14	4508550	593.893	21.193
14	4508605	593.894	23.594
14	4508662	593.895	19.395
14	4512082	594.072	18.172
14	4516724	594.246	18.146
14	4516748	594.246	17.146
14	4516877	594.247	17.947
14	4516888	594.247	17.547
14	4516900	594.247	17.347
14	4517046	594.248	16.148
14	4517096	594.249	16.549
14	4517099	594.249	16.349
14	4517135	594.25	16.95
14	4517255	594.255	17.755
14	4520906	594.43	16.13
14	4520917	594.43	15.73
14	4521017	594.431	15.931
14	4521041	594.431	15.331
14	4521138	594.432	15.532
14	4521151	594.432	15.132
14	4521155	594.432	14.932
14	4521388	594.446	16.946
14	4524865	594.604	14.304
14	4524928	594.605	14.705
14	4524955	594.605	14.105
14	4524990	594.606	14.506
14	4525422	594.63	14.93
14	4529332	594.782	13.682
14	4529346	594.782	12.882
14	4529353	594.782	12.482
14	4529468	594.783	14.083
14	4529481	594.783	13.883
14	4529516	594.783	13.083
14	4529617	594.784	13.284
14	4529710	594.786	12.686
14	4529727	594.787	13.487
14	4533330	594.957	12.057
14	4533335	594.957	11.657
14	4533465	594.958	12.258
14	4533508	594.958	11.458
14	4533516	594.958	11.258
14	4533527	594.958	11.058
14	4533665	594.96	11.86
14	4539191	595.134	11.034
14	4539213	595.134	10.634
14	4539250	595.135	10.835
14	4540106	595.167	12.667
14	4548585	595.311	10.411
14	4548591	595.311	10.211
14	4548618	595.311	8.611
14	4548623	595.311	8.411
14	4548639	595.311	7.411
14	4548663	595.311	6.211
14	4548895	595.312	10.612
14	4548916	595.312	10.012
14	4548933	595.312	9.612
14	4548945	595.312	9.212
14	4549002	595.312	8.012
14	4549015	595.312	7.812
14	4549023	595.312	7.612
14	4549070	595.312	6.612
14	4549238	595.313	9.813
14	4549301	595.313	7.013
14	4549309	595.313	6.813
14	4549316	595.313	6.413
14	4549325	595.313	6.013
14	4549432	595.314	9.014
14	4549434	595.314	8.814
14	4549524	595.315	8.215
14	4549613	595.317	9.417
14	4549617	595.317	7.217
14	4556174	595.489	5.789
14	4556207	595.489	4.389
14	4556219	595.489	3.989
14	4556228	595.489	3.589
14	4556239	595.489	2.989
14	4556242	595.489	2.789
14	4556269	595.489	1.589
14	4556280	595.489	0.989
14	4556287	595.489	0.589
14	4556589	595.49	5.59
14	4556595	595.49	5.39
14	4556606	595.49	5.19
14	4556611	595.49	4.99
14	4556630	595.49	4.59
14	4556651	595.49	4.19
14	4556717	595.49	2.59
14	4556750	595.49	1.99
14	4556756	595.49	1.79
14	4556777	595.49	1.19
14	4556802	595.49	0.79
14	4556948	595.491	4.791
14	4556989	595.491	2.391
14	4557120	595.492	3.392
14	4557125	595.492	3.192
14	4557209	595.493	5.993
14	4557305	595.494	3.794
14	4557320	595.494	1.394
14	4557722	595.501	0.401
14	4560058	595.689	2.389
14	4560329	595.7	0.4
14	4563247	595.902	0.402
14	4566072	596.105	0.405
14	4568895	596.304	0.404
14	4571489	596.5	0.4
14	4574568	596.705	0.405
14	4577426	596.901	0.401
14	4580330	597.102	0.402
14	4583419	597.308	0.408
14	4586167	597.5	0.4
14	4589279	597.701	0.401
14	4592218	597.9	0.4
14	4595245	598.1	0.4
14	4598586	598.302	0.402
14	4601724	598.503	0.403
14	4604860	598.701	0.401
14	4608146	598.902	0.402
14	4611391	599.101	0.401
14	4614702	599.304	0.404
14	4617950	599.503	0.403
14	4621239	599.703	0.403
14	4624597	599.901	0.401
14	4627998	600.101	0.401
14	4631421	600.301	0.401
14	4634995	600.507	0.407
14	4638331	600.701	0.401
14	4641956	600.906	0.406
14	4645474	601.104	0.404
14	4648999	601.302	0.402
14	4652602	601.501	0.401
14	4656203	601.702	0.402
14	4659718	601.9	0.4
14	4663582	602.101	0.401
14	4667307	602.302	0.402
14	4670870	602.5	0.4
14	4674631	602.7	0.4
14	4678430	602.9	0.4
14	4685680	603.28	0.58
14	4686453	603.306	0.406
14	4690319	603.502	0.402
14	4694303	603.705	0.405
14	4697983	603.9	0.4
14	4705496	604.277	0.577
14	4706221	604.301	0.401
14	4710314	604.501	0.401
14	4714258	604.7	0.4
14	4718640	604.908	0.408
14	4722737	605.102	0.402
14	4726859	605.301	0.401
14	4731120	605.501	0.401
14	4735240	605.7	0.4
14	4739555	605.902	0.402
14	4748121	606.298	0.598
14	4748413	606.301	0.401
14	4752737	606.501	0.401
14	4757268	606.702	0.402
14	4761624	606.901	0.401
14	4770444	607.3	0.4
14	4770670	607.304	0.604
14	4775149	607.502	0.402
14	4779715	607.701	0.401
14	4784300	607.901	0.401
14	4788934	608.101	0.401
14	4793586	608.301	0.401
14	4798288	608.501	0.401
14	4803110	608.706	0.406
14	4807782	608.902	0.402
14	4812598	609.102	0.402
14	4817236	609.3	0.4
14	4822241	609.501	0.401
14	4826884	609.7	0.4
14	4832024	609.904	0.404
14	4836833	610.102	0.402
14	4845998	610.476	0.576
14	4846905	610.501	0.401
14	4851838	610.702	0.402
14	4861282	611.076	0.576
14	4862142	611.101	0.401
14	4867172	611.301	0.401
14	4872456	611.51	0.41
14	4881856	611.879	0.579
14	4887214	612.075	0.575
14	4888070	612.101	0.401
14	4898072	612.482	0.582
14	4898842	612.501	0.401
14	4904120	612.7	0.4
14	4909652	612.902	0.402
14	4915523	613.117	0.417
14	4920406	613.3	0.4
14	4925902	613.5	0.4
14	4931678	613.702	0.402
14	4937351	613.909	0.409
14	4942813	614.101	0.401
14	4948410	614.301	0.401
14	4953931	614.5	0.4
14	4959593	614.7	0.4
14	4965294	614.9	0.4
14	4971054	615.1	0.4
14	4976992	615.301	0.401
14	4982771	615.502	0.402
14	4988623	615.702	0.402
14	4994489	615.903	0.403
14	5000432	616.105	0.405
14	5006334	616.302	0.402
14	5012308	616.504	0.404
14	5018266	616.703	0.403
14	5024300	616.903	0.403
14	5030285	617.102	0.402
14	5036352	617.301	0.401
14	5042293	617.5	0.4
14	5048653	617.703	0.403
14	5054819	617.901	0.401
14	5061024	618.102	0.402
14	5067141	618.301	0.401
14	5073388	618.501	0.401
14	5079438	618.7	0.4
14	5085954	618.902	0.402
14	5092120	619.1	0.4
14	5098461	619.3	0.4
14	5104902	619.5	0.4
14	5111472	619.703	0.403
14	5117690	619.901	0.401
14	5129768	620.275	0.575
14	5137430	620.502	0.402
14	5138095	620.524	0.624
14	5143878	620.702	0.402
14	5156229	621.074	0.574
14	5157353	621.101	0.401
14	5164074	621.302	0.402
14	5170494	621.5	0.4
14	5177609	621.706	0.406
14	5184351	621.905	0.405
14	5191026	622.101	0.401
14	5197993	622.302	0.402
14	5204933	622.506	0.406
14	5211443	622.701	0.401
14	5215548	622.902	0.402
14	5218887	623.102	0.402
41	5471696	892.9	0
41	5477300	897.9	0
41	5482910	902.9	0
41	5488510	907.9	0
41	5494018	912.9	0
41	5498413	917.9	0
41	5503227	922.9	0
41	5508033	927.9	0
41	5512849	932.9	0
41	5517661	937.9	0
41	5522463	942.9	0
41	5527269	947.9	0
41	5532087	952.9	0
41	5536881	957.9	0
41	5541685	962.9	0
41	5546495	967.9	0
41	5551297	972.9	0
41	5555070	977.9	0
41	5559080	982.9	0
41	5563094	987.9	0
41	5567110	992.9	0
41	5571130	997.9	0
41	5575152	1002.9	0
41	5578816	1007.9	0
41	5583395	1012.9	0
41	5588965	1017.9	0
43	5473727	894.7	0
43	5479335	899.7	0
43	5484937	904.7	0
43	5490545	909.7	0
43	5495617	914.7	0
43	5500161	919.7	0
43	5504965	924.7	0
43	5509781	929.7	0
43	5514595	934.7	0
43	5519405	939.7	0
43	5524207	944.7	0
43	5529017	949.7	0
43	5533827	954.7	0
43	5538625	959.7	0
43	5543435	964.7	0
43	5548245	969.7	0
43	5552737	974.7	0
43	5556535	979.7	0
43	5560539	984.7	0
43	5564561	989.7	0
43	5568577	994.7	0
43	5572597	999.7	0
43	5576621	1004.7	0
43	5580056	1009.7	0
43	5585398	1014.7	0
43	5590988	1019.7	0
44	5586307	1015.5	0
45	5587210	1016.3	0
46	5589448	1018.3	0

