version 2
run FastSMR-0-20181114-02:06:27-6776
attr configname FastSMR
attr datetime 20181114-02:06:27
attr experiment FastSMR
attr inifile omnetpp.ini
attr iterationvars $GC=false
attr iterationvarsf GC=false-
attr measurement $GC=false
attr network abstract.FastSMRModel
attr processid 6776
attr repetition 0
attr replication #0
attr resultdir results
attr runnumber 0
attr seedset 0
itervar GC false
param FastSMRModel.client_num 10
param FastSMRModel.logical_computer "\"client[0]\""
param **.globalParameters.max_distance 20000000m
param **.globalParameters.fix_latency 100ms
param **.globalParameters.latency_gen_mode 0
param **.globalStatistics.cool_down 10s
param **.underlayConfigurator.lcType "\"abstract.LogicComputer\""
param **.underlayConfigurator.lcName "\"logicComputer\""
param **.underlayConfigurator.nodeType "\"hosts.Node\""
param **.underlayConfigurator.nodeName "\"node\""
param **.underlayConfigurator.clientType "\"hosts.Client\""
param **.underlayConfigurator.clientName "\"client\""
param **.client[*].ctrl.initJoinTime 3000ms
param **.client[*].ctrl.loadCycle 500ms
param **.client[*].ctrl.discoveryCycle 1000ms
param **.client[*].ctrl.deviate false
param **.node[*].IPInterface "\"IPAddress\""
param **.node[*].HBcycle 1000ms
param **.node[*].ctrl.roundCycle 200ms
param **.node[*].ctrl.cycleStart 4000ms
param **.node[*].ctrl.GCCycle 5000ms
param **.node[*].ctrl.GC false
param **.rendezvous.ctrl.cycle 1000ms
param **.rendezvous.ctrl.starttime 5000ms
param **.rendezvous.replicaNumPolicyModule "\"replication\""
param **.rendezvous.replication.threshold 3
param **.rendezvous.replication.max_replica 5
param **.clock.err_mean 74ms
param **.clock.err_std 175ms
param **.pktLossRate 0.01
param **.Copt 200000000mps
param **.BW 1.04858e6bps
param **.MTU 12144b
param **.jitter_mu 1
param **.jitter_sigma 0.5
param **.Dmin 50ms
param **.jitter 50ms
param **.churnGeneratorModule "\"churnGenerator\""
param **.churnGenerator.stable_fraction 0.2
param **.churnGenerator.stable_mean 9000000ms
param **.churnGenerator.sessionLenShape 0.38
param **.churnGenerator.sessionLenScale 42.4
param **.churnGenerator.sessionLenMin 10s
param **.churnGenerator.sessionLength 30min
param **.churnGenerator.scan_cycle 100ms
param **.churnGenerator.life_span_min 10s
param **.churnGenerator.life_span_max 200s
param **.coordinator.locXMax 750
param **.coordinator.locYMax 550
param **.coordinator.locXMin 200
param **.coordinator.locYMin 50
param **.coordinator.LCXMax 1050
param **.coordinator.LCYMax 550
param **.coordinator.LCXMin 850
param **.coordinator.LCYMin 50
param **.coordinator.percept_radius 1000

vector 0 FastSMRModel.client[9] IndividualInteractionLatency:vector ETV
attr source latency
attr title "Individual Interaction Latency, vector"
vector 1 FastSMRModel.client[2] IndividualInteractionLatency:vector ETV
attr source latency
attr title "Individual Interaction Latency, vector"
vector 2 FastSMRModel.client[4] IndividualInteractionLatency:vector ETV
attr source latency
attr title "Individual Interaction Latency, vector"
vector 3 FastSMRModel.client[7] IndividualInteractionLatency:vector ETV
attr source latency
attr title "Individual Interaction Latency, vector"
vector 4 FastSMRModel.client[5] IndividualInteractionLatency:vector ETV
attr source latency
attr title "Individual Interaction Latency, vector"
vector 5 FastSMRModel.client[6] IndividualInteractionLatency:vector ETV
attr source latency
attr title "Individual Interaction Latency, vector"
vector 6 FastSMRModel.client[0] IndividualInteractionLatency:vector ETV
attr source latency
attr title "Individual Interaction Latency, vector"
vector 7 FastSMRModel.client[1] IndividualInteractionLatency:vector ETV
attr source latency
attr title "Individual Interaction Latency, vector"
vector 8 FastSMRModel.client[3] IndividualInteractionLatency:vector ETV
attr source latency
attr title "Individual Interaction Latency, vector"
vector 9 FastSMRModel.client[8] IndividualInteractionLatency:vector ETV
attr source latency
attr title "Individual Interaction Latency, vector"
vector 10 FastSMRModel.logicComputer[0].node[0] QdLengthVector:vector ETV
attr source QdLength
attr title "Qd Length, vector"
vector 11 FastSMRModel.logicComputer[0].node[1] QdLengthVector:vector ETV
attr source QdLength
attr title "Qd Length, vector"
vector 12 FastSMRModel.logicComputer[0].node[2] QdLengthVector:vector ETV
attr source QdLength
attr title "Qd Length, vector"
vector 13 FastSMRModel.logicComputer[0].node[3] QdLengthVector:vector ETV
attr source QdLength
attr title "Qd Length, vector"
vector 14 FastSMRModel.logicComputer[0].node[4] QdLengthVector:vector ETV
attr source QdLength
attr title "Qd Length, vector"
13	9279	10.5	40
13	54253	15.5	290
13	99490	20.5	540
13	143810	25.5	770
13	189437	30.5	1030
13	234116	35.5	1270
13	280628	40.5	1540
13	325747	45.5	1790
13	370961	50.5	2040
13	415580	55.5	2290
13	461360	60.5	2540
13	506117	65.5	2790
13	551975	70.5	3040
11	9277	10.5	40
11	54251	15.5	290
11	99488	20.5	540
11	143808	25.5	790
11	189435	30.5	1040
11	234114	35.5	1290
11	280626	40.5	1540
11	325745	45.5	1790
11	370959	50.5	2040
11	415578	55.5	2290
11	461358	60.5	2540
11	506115	65.5	2790
11	551973	70.5	3040
11	590967	75.5	3290
11	627551	80.5	3540
11	663842	85.5	3790
11	700531	90.5	4040
11	736962	95.5	4290
11	773260	100.5	4540
11	809534	105.5	4790
11	846039	110.5	5040
11	882472	115.5	5290
11	918759	120.5	5540
11	955078	125.5	5790
10	9276	10.5	40
10	54250	15.5	290
10	99487	20.5	540
10	143807	25.5	790
10	189434	30.5	1040
10	234113	35.5	1290
10	280625	40.5	1540
10	325744	45.5	1790
10	370958	50.5	2040
10	415577	55.5	2290
10	461357	60.5	2540
10	506114	65.5	2790
10	551972	70.5	3040
10	590966	75.5	3280
10	627550	80.5	3540
10	663841	85.5	3790
10	700530	90.5	4040
10	736961	95.5	4290
10	773259	100.5	4540
10	809533	105.5	4790
10	846038	110.5	5040
10	882471	115.5	5290
10	918758	120.5	5540
10	955077	125.5	5780
10	989698	130.5	6040
10	1017400	135.5	6290
10	1045097	140.5	6540
10	1072604	145.5	6780
10	1100462	150.5	7040
10	1128329	155.5	7290
10	1155485	160.5	7540
10	1183875	165.5	7790
10	1211664	170.5	8040
14	9280	10.5	40
14	54254	15.5	290
14	99491	20.5	540
14	143811	25.5	790
14	189438	30.5	1030
14	234117	35.5	1280
14	280629	40.5	1540
14	325748	45.5	1790
14	370962	50.5	2040
14	415581	55.5	2290
14	461361	60.5	2540
14	506118	65.5	2790
14	551976	70.5	3040
14	590969	75.5	3290
14	627553	80.5	3540
14	663844	85.5	3780
14	700533	90.5	4040
14	736964	95.5	4290
14	773262	100.5	4540
14	809536	105.5	4790
14	846041	110.5	5040
14	882474	115.5	5290
14	918761	120.5	5540
14	955080	125.5	5790
14	989700	130.5	6040
14	1017402	135.5	6290
14	1045099	140.5	6540
14	1072606	145.5	6790
14	1100464	150.5	7040
14	1128331	155.5	7290
14	1155487	160.5	7530
14	1183877	165.5	7790
14	1211666	170.5	8040
14	1239033	175.5	8290
14	1245586	180.5	8340
14	1248864	185.5	8340
0	5303	10.069	0.369
0	7284	10.273	0.373
0	9029	10.469	0.369
0	10895	10.671	0.371
0	12676	10.87	0.37
0	14256	11.069	0.369
0	15716	11.268	0.368
0	17673	11.473	0.373
0	19868	11.672	0.372
0	21706	11.871	0.371
0	23520	12.069	0.369
0	25335	12.271	0.371
0	27117	12.471	0.371
0	28881	12.669	0.369
0	30408	12.871	0.371
0	31949	13.074	0.374
0	33924	13.27	0.37
0	35549	13.469	0.369
0	37670	13.669	0.369
0	39712	13.87	0.37
0	41534	14.069	0.369
0	42821	14.269	0.369
0	44009	14.471	0.371
0	46074	14.673	0.373
0	48695	14.871	0.371
0	50331	15.07	0.37
0	52229	15.27	0.37
0	53975	15.475	0.375
0	55957	15.669	0.369
0	57819	15.87	0.37
0	59662	16.071	0.371
0	61428	16.269	0.369
0	63217	16.469	0.369
0	65007	16.67	0.37
0	66293	16.876	0.376
0	67906	17.07	0.37
0	70139	17.282	0.382
0	71938	17.469	0.369
0	73221	17.67	0.37
0	75299	17.872	0.372
0	77461	18.075	0.375
0	78655	18.269	0.369
0	81093	18.471	0.371
0	83113	18.67	0.37
0	84902	18.87	0.37
0	86500	19.069	0.369
0	87960	19.268	0.368
0	89710	19.47	0.37
0	91994	19.67	0.37
0	93642	19.868	0.368
0	95405	20.07	0.37
0	97003	20.269	0.369
0	99170	20.471	0.371
0	101232	20.67	0.37
0	103035	20.87	0.37
0	104861	21.069	0.369
0	106164	21.279	0.379
0	107609	21.474	0.374
0	109734	21.67	0.37
0	111464	21.869	0.369
0	113714	22.069	0.369
0	115713	22.269	0.369
0	117026	22.469	0.369
0	119245	22.675	0.375
0	121094	22.869	0.369
0	122745	23.073	0.373
0	124717	23.274	0.374
0	126536	23.472	0.372
0	128285	23.669	0.369
0	129812	23.87	0.37
0	131336	24.07	0.37
0	133570	24.269	0.369
0	135548	24.473	0.373
0	137308	24.67	0.37
0	139081	24.87	0.37
0	140677	25.07	0.37
0	141865	25.269	0.369
0	143466	25.47	0.37
0	146216	25.669	0.369
0	148209	25.869	0.369
0	149783	26.069	0.369
0	151548	26.274	0.374
0	153576	26.469	0.369
0	154993	26.674	0.374
0	155900	26.875	0.375
0	158596	27.073	0.373
0	160640	27.269	0.369
0	162113	27.469	0.369
0	164239	27.668	0.368
0	166087	27.876	0.376
0	167840	28.073	0.373
0	169818	28.273	0.373
0	171182	28.469	0.369
0	172347	28.669	0.369
0	174182	28.871	0.371
0	176628	29.069	0.369
0	178127	29.269	0.369
0	180175	29.47	0.37
0	182545	29.669	0.369
0	184396	29.872	0.372
0	186191	30.069	0.369
0	187792	30.274	0.374
0	189199	30.469	0.369
0	190469	30.669	0.369
0	192097	30.868	0.368
0	193762	31.073	0.373
0	195875	31.269	0.369
0	198139	31.482	0.382
0	200285	31.669	0.369
0	201969	31.869	0.369
0	203928	32.072	0.372
0	206169	32.271	0.371
0	207741	32.47	0.37
0	209231	32.671	0.371
0	211328	32.868	0.368
0	212921	33.073	0.373
0	214349	33.27	0.37
0	216114	33.476	0.376
0	217833	33.669	0.369
0	220315	33.869	0.369
0	222532	34.074	0.374
0	224278	34.27	0.37
0	225807	34.47	0.37
0	227458	34.669	0.369
0	228805	34.869	0.369
0	231018	35.069	0.369
0	232490	35.27	0.37
0	234010	35.488	0.388
0	235931	35.688	0.388
0	238407	35.875	0.375
0	240750	36.073	0.373
0	242524	36.273	0.373
0	244300	36.471	0.371
0	246080	36.67	0.37
0	247891	36.873	0.373
0	249675	37.069	0.369
0	251185	37.268	0.368
0	253135	37.47	0.37
0	255036	37.669	0.369
0	256344	37.869	0.369
0	258532	38.07	0.37
0	259945	38.27	0.37
0	261543	38.469	0.369
0	263453	38.669	0.369
0	265271	38.87	0.37
0	267387	39.082	0.382
0	269107	39.273	0.373
0	271291	39.47	0.37
0	273188	39.671	0.371
0	274692	39.869	0.369
0	276506	40.074	0.374
0	278542	40.27	0.37
0	280380	40.469	0.369
0	282226	40.669	0.369
0	283832	40.874	0.374
0	285500	41.068	0.368
0	287052	41.269	0.369
0	288520	41.469	0.369
0	290205	41.669	0.369
0	292828	41.872	0.372
0	294926	42.07	0.37
0	296505	42.273	0.373
0	298465	42.47	0.37
0	299777	42.669	0.369
0	300909	42.887	0.387
0	302775	43.071	0.371
0	305593	43.277	0.377
0	307303	43.469	0.369
0	308772	43.669	0.369
0	310438	43.87	0.37
0	311868	44.073	0.373
0	313641	44.269	0.369
0	315975	44.469	0.369
0	318254	44.669	0.369
0	320218	44.871	0.371
0	321782	45.07	0.37
0	323258	45.269	0.369
0	325393	45.469	0.369
0	327529	45.674	0.374
0	329280	45.869	0.369
0	330870	46.07	0.37
0	332346	46.269	0.369
0	334483	46.469	0.369
0	336495	46.669	0.369
0	338317	46.872	0.372
0	339857	47.069	0.369
0	341757	47.268	0.368
0	343714	47.47	0.37
0	345244	47.669	0.369
0	347150	47.869	0.369
0	348920	48.074	0.374
0	350882	48.271	0.371
0	352681	48.468	0.368
0	354459	48.668	0.368
0	355743	48.869	0.369
0	357395	49.069	0.369
0	359779	49.269	0.369
0	361529	49.474	0.374
0	363452	49.669	0.369
0	365301	49.869	0.369
0	367122	50.069	0.369
0	368689	50.271	0.371
0	370711	50.473	0.373
0	372352	50.673	0.373
0	374308	50.873	0.373
0	376198	51.069	0.369
0	377992	51.27	0.37
0	379763	51.469	0.369
0	381369	51.674	0.374
0	383286	51.869	0.369
0	385161	52.068	0.368
0	386782	52.274	0.374
0	388691	52.469	0.369
0	390553	52.669	0.369
0	392361	52.872	0.372
0	393930	53.07	0.37
0	395211	53.274	0.374
0	397483	53.47	0.37
0	399568	53.669	0.369
0	401126	53.869	0.369
0	403180	54.072	0.372
0	404736	54.269	0.369
0	406242	54.473	0.373
0	407676	54.669	0.369
0	409170	54.87	0.37
0	410620	55.069	0.369
0	411717	55.27	0.37
0	415084	55.47	0.37
0	417526	55.669	0.369
0	418602	55.886	0.386
0	419779	56.09	0.39
0	421067	56.288	0.388
0	423568	56.472	0.372
0	425646	56.673	0.373
0	427080	56.868	0.368
0	430294	57.07	0.37
0	432087	57.273	0.373
0	434076	57.47	0.37
0	435579	57.668	0.368
0	437077	57.869	0.369
0	439373	58.069	0.369
0	441307	58.269	0.369
0	442845	58.471	0.371
0	444728	58.668	0.368
0	446465	58.873	0.373
0	448234	59.069	0.369
0	449746	59.269	0.369
0	451877	59.469	0.369
0	453726	59.674	0.374
0	455684	59.873	0.373
0	457552	60.071	0.371
0	459327	60.269	0.369
0	461127	60.47	0.37
0	462949	60.669	0.369
0	464315	60.873	0.373
0	466500	61.069	0.369
0	468144	61.269	0.369
0	469674	61.474	0.374
0	471805	61.673	0.373
0	473822	61.873	0.373
0	475602	62.068	0.368
0	477110	62.269	0.369
0	478219	62.488	0.388
0	479330	62.686	0.386
0	481532	62.886	0.386
0	484371	63.069	0.369
0	486171	63.27	0.37
0	487398	63.469	0.369
0	488596	63.67	0.37
0	490490	63.869	0.369
0	492406	64.069	0.369
0	494385	64.269	0.369
0	496480	64.469	0.369
0	497988	64.67	0.37
0	500053	64.872	0.372
0	502511	65.07	0.37
0	503782	65.269	0.369
0	505711	65.473	0.373
0	507924	65.669	0.369
0	509013	65.87	0.37
0	510155	66.069	0.369
0	512216	66.272	0.372
0	515044	66.469	0.369
0	516802	66.669	0.369
0	518935	66.869	0.369
0	520761	67.068	0.368
0	522241	67.269	0.369
0	524408	67.472	0.372
0	526216	67.673	0.373
0	528120	67.869	0.369
0	529774	68.069	0.369
0	531497	68.273	0.373
0	533333	68.469	0.369
0	534987	68.682	0.382
0	536566	68.87	0.37
0	538161	69.07	0.37
0	539405	69.269	0.369
0	541484	69.47	0.37
0	543898	69.683	0.383
0	546263	69.873	0.373
0	548137	70.068	0.368
0	549950	70.27	0.37
0	551735	70.47	0.37
0	553119	70.674	0.374
0	555226	70.869	0.369
0	557222	71.069	0.369
0	558823	71.273	0.373
0	560738	71.469	0.369
0	562407	71.674	0.374
0	564317	71.868	0.368
0	566219	72.07	0.37
0	567574	72.282	0.382
0	568922	72.472	0.372
0	570316	72.672	0.372
0	571562	72.869	0.369
0	572748	73.072	0.372
0	573854	73.27	0.37
0	574966	73.469	0.369
0	576683	73.67	0.37
0	579315	73.884	0.384
0	580849	74.069	0.369
0	582347	74.269	0.369
0	583534	74.469	0.369
0	584986	74.673	0.373
0	586701	74.87	0.37
0	587965	75.073	0.373
0	589628	75.271	0.371
0	590791	75.468	0.368
0	592028	75.682	0.382
0	593638	75.869	0.369
0	595466	76.074	0.374
0	596973	76.268	0.368
0	598410	76.469	0.369
0	599658	76.673	0.373
0	601213	76.871	0.371
0	602831	77.07	0.37
0	604258	77.269	0.369
0	605485	77.472	0.372
0	606898	77.688	0.388
0	608567	77.869	0.369
0	610130	78.07	0.37
0	611404	78.282	0.382
0	612944	78.469	0.369
0	614219	78.669	0.369
0	615870	78.87	0.37
0	617125	79.069	0.369
0	618755	79.272	0.372
0	620284	79.47	0.37
0	621555	79.682	0.382
0	623102	79.869	0.369
0	624639	80.069	0.369
0	625948	80.283	0.383
0	627426	80.482	0.382
0	629063	80.673	0.373
0	630480	80.869	0.369
0	631972	81.07	0.37
0	633426	81.271	0.371
0	634850	81.469	0.369
0	636302	81.67	0.37
0	637746	81.871	0.371
0	639244	82.072	0.372
0	640659	82.27	0.37
0	642066	82.468	0.368
0	643545	82.67	0.37
0	644968	82.87	0.37
0	646209	83.07	0.37
0	647763	83.269	0.369
0	649329	83.483	0.383
0	650768	83.671	0.371
0	652269	83.872	0.372
0	653516	84.072	0.372
0	654875	84.269	0.369
0	656468	84.469	0.369
0	658138	84.673	0.373
0	659558	84.871	0.371
0	661038	85.069	0.369
0	662345	85.285	0.385
0	663650	85.472	0.372
0	664831	85.671	0.371
0	666808	85.871	0.371
0	668425	86.07	0.37
0	669629	86.27	0.37
0	671283	86.47	0.37
0	672751	86.669	0.369
0	674170	86.868	0.368
0	675671	87.069	0.369
0	676894	87.27	0.37
0	678514	87.469	0.369
0	679984	87.669	0.369
0	681455	87.871	0.371
0	682931	88.069	0.369
0	684409	88.274	0.374
0	685814	88.469	0.369
0	687246	88.669	0.369
0	688673	88.869	0.369
0	690170	89.069	0.369
0	691605	89.269	0.369
0	693082	89.471	0.371
0	694500	89.669	0.369
0	695697	89.87	0.37
0	697367	90.074	0.374
0	698879	90.27	0.37
0	700345	90.472	0.372
0	701574	90.67	0.37
0	703009	90.871	0.371
0	704467	91.069	0.369
0	706072	91.269	0.369
0	707689	91.474	0.374
0	709107	91.671	0.371
0	710535	91.869	0.369
0	712018	92.069	0.369
0	713459	92.269	0.369
0	714895	92.469	0.369
0	716106	92.669	0.369
0	717762	92.87	0.37
0	719309	93.075	0.375
0	720326	93.287	0.387
0	721767	93.486	0.386
0	723200	93.669	0.369
0	725108	93.871	0.371
0	726343	94.07	0.37
0	727901	94.268	0.368
0	729510	94.471	0.371
0	730791	94.683	0.383
0	732348	94.871	0.371
0	733879	95.07	0.37
0	735325	95.269	0.369
0	736754	95.469	0.369
0	738274	95.676	0.376
0	739713	95.873	0.373
0	741173	96.07	0.37
0	742600	96.269	0.369
0	744058	96.469	0.369
0	745526	96.673	0.373
0	746972	96.873	0.373
0	748420	97.07	0.37
0	749861	97.27	0.37
0	751299	97.469	0.369
0	752730	97.669	0.369
0	754214	97.873	0.373
0	755669	98.07	0.37
0	757099	98.269	0.369
0	758538	98.469	0.369
0	759957	98.685	0.385
0	761355	98.869	0.369
0	762652	99.069	0.369
0	764232	99.269	0.369
0	765808	99.469	0.369
0	767254	99.67	0.37
0	768704	99.87	0.37
0	770182	100.069	0.369
0	771596	100.268	0.368
0	773034	100.468	0.368
0	774512	100.668	0.368
0	775772	100.872	0.372
0	777097	101.068	0.368
0	778895	101.276	0.376
0	780402	101.469	0.369
0	781361	101.669	0.369
0	783148	101.869	0.369
0	784791	102.069	0.369
0	786242	102.269	0.369
0	787684	102.469	0.369
0	788870	102.67	0.37
0	790424	102.869	0.369
0	792053	103.069	0.369
0	793191	103.282	0.382
0	794864	103.469	0.369
0	796374	103.683	0.383
0	797801	103.87	0.37
0	799341	104.069	0.369
0	800817	104.273	0.373
0	802253	104.474	0.374
0	803665	104.669	0.369
0	805101	104.869	0.369
0	806318	105.069	0.369
0	807895	105.269	0.369
0	809458	105.485	0.385
0	810907	105.669	0.369
0	811942	105.869	0.369
0	813611	106.069	0.369
0	815375	106.269	0.369
0	816811	106.469	0.369
0	818274	106.671	0.371
0	819684	106.869	0.369
0	821191	107.07	0.37
0	822616	107.269	0.369
0	824068	107.47	0.37
0	825605	107.683	0.383
0	826951	107.87	0.37
0	828422	108.069	0.369
0	829865	108.269	0.369
0	831300	108.469	0.369
0	832596	108.682	0.382
0	834118	108.868	0.368
0	835548	109.086	0.386
0	837051	109.282	0.382
0	838585	109.469	0.369
0	840022	109.669	0.369
0	841448	109.869	0.369
0	842782	110.083	0.383
0	844263	110.27	0.37
0	845835	110.469	0.369
0	847068	110.669	0.369
0	848687	110.871	0.371
0	850023	111.069	0.369
0	851424	111.272	0.372
0	853008	111.47	0.37
0	854511	111.684	0.384
0	856071	111.871	0.371
0	857596	112.07	0.37
0	858798	112.269	0.369
0	860470	112.472	0.372
0	861921	112.669	0.369
0	863119	112.869	0.369
0	864768	113.071	0.371
0	866322	113.269	0.369
0	867753	113.469	0.369
0	869227	113.671	0.371
0	870507	113.884	0.384
0	872084	114.07	0.37
0	873589	114.27	0.37
0	875014	114.469	0.369
0	876462	114.67	0.37
0	877896	114.869	0.369
0	879383	115.069	0.369
0	880827	115.269	0.369
0	882272	115.47	0.37
0	883747	115.669	0.369
0	885196	115.87	0.37
0	886778	116.082	0.382
0	888113	116.269	0.369
0	889316	116.469	0.369
0	890895	116.669	0.369
0	892465	116.869	0.369
0	893735	117.07	0.37
0	895367	117.269	0.369
0	896843	117.469	0.369
0	898262	117.685	0.385
0	899426	117.87	0.37
0	900904	118.07	0.37
0	902542	118.271	0.371
0	904148	118.469	0.369
0	905617	118.671	0.371
0	906870	118.882	0.382
0	908469	119.07	0.37
0	909960	119.269	0.369
0	911433	119.471	0.371
0	912824	119.668	0.368
0	914286	119.869	0.369
0	915781	120.07	0.37
0	916960	120.27	0.37
0	918537	120.47	0.37
0	920142	120.669	0.369
0	921356	120.869	0.369
0	922979	121.069	0.369
0	924520	121.269	0.369
0	925969	121.469	0.369
0	927401	121.669	0.369
0	928621	121.87	0.37
0	930214	122.087	0.387
0	931765	122.269	0.369
0	933269	122.469	0.369
0	934485	122.672	0.372
0	936086	122.871	0.371
0	937433	123.072	0.372
0	939074	123.27	0.37
0	940542	123.469	0.369
0	941978	123.669	0.369
0	943274	123.884	0.384
0	944573	124.072	0.372
0	946051	124.27	0.37
0	947475	124.485	0.385
0	949090	124.671	0.371
0	950808	124.869	0.369
0	952301	125.069	0.369
0	953740	125.269	0.369
0	954910	125.468	0.368
0	956536	125.669	0.369
0	957889	125.871	0.371
0	959048	126.07	0.37
0	960341	126.27	0.37
0	962540	126.469	0.369
0	964020	126.67	0.37
0	965452	126.869	0.369
0	966944	127.069	0.369
0	968359	127.268	0.368
0	969857	127.473	0.373
0	971283	127.671	0.371
0	972469	127.869	0.369
0	974185	128.071	0.371
0	975391	128.268	0.368
0	977065	128.47	0.37
0	978544	128.671	0.371
0	979951	128.868	0.368
0	981491	129.073	0.373
0	982860	129.269	0.369
0	984087	129.48	0.38
0	985148	129.669	0.369
0	986254	129.871	0.371
0	987391	130.07	0.37
0	988486	130.27	0.37
0	989577	130.469	0.369
0	990457	130.671	0.371
0	991680	130.869	0.369
0	992961	131.069	0.369
0	994053	131.269	0.369
0	995145	131.469	0.369
0	996237	131.668	0.368
0	997336	131.869	0.369
0	998472	132.068	0.368
0	999583	132.269	0.369
0	1000671	132.469	0.369
0	1001773	132.67	0.37
0	1002870	132.869	0.369
0	1004005	133.07	0.37
0	1005086	133.268	0.368
0	1006189	133.469	0.369
0	1007290	133.669	0.369
0	1008394	133.871	0.371
0	1009522	134.069	0.369
0	1010377	134.269	0.369
0	1011598	134.469	0.369
0	1012830	134.669	0.369
0	1013682	134.869	0.369
0	1014799	135.07	0.37
0	1016191	135.27	0.37
0	1017286	135.469	0.369
0	1018413	135.671	0.371
0	1019554	135.882	0.382
0	1020635	136.069	0.369
0	1021739	136.269	0.369
0	1022824	136.469	0.369
0	1023954	136.677	0.377
0	1025053	136.88	0.38
0	1026208	137.082	0.382
0	1027003	137.269	0.369
0	1028069	137.471	0.371
0	1029481	137.672	0.372
0	1030563	137.869	0.369
0	1031733	138.076	0.376
0	1032805	138.271	0.371
0	1033394	138.471	0.371
0	1034553	138.669	0.369
0	1036120	138.87	0.37
0	1037262	139.07	0.37
0	1038102	139.269	0.369
0	1039321	139.468	0.368
0	1040314	139.669	0.369
0	1041337	139.869	0.369
0	1042628	140.07	0.37
0	1043701	140.272	0.372
0	1044914	140.469	0.369
0	1046113	140.69	0.39
0	1046973	140.869	0.369
0	1048338	141.078	0.378
0	1049336	141.282	0.382
0	1050610	141.476	0.376
0	1051745	141.669	0.369
0	1052841	141.87	0.37
0	1053991	142.07	0.37
0	1055065	142.268	0.368
0	1055930	142.47	0.37
0	1056990	142.669	0.369
0	1058372	142.868	0.368
0	1059523	143.069	0.369
0	1060623	143.27	0.37
0	1061724	143.47	0.37
0	1062818	143.672	0.372
0	1063717	143.883	0.383
0	1065002	144.071	0.371
0	1066143	144.269	0.369
0	1067244	144.469	0.369
0	1068345	144.669	0.369
0	1069205	144.873	0.373
0	1070466	145.071	0.371
0	1071695	145.27	0.37
0	1072533	145.469	0.369
0	1073735	145.684	0.384
0	1074789	145.882	0.382
0	1076132	146.069	0.369
0	1077289	146.269	0.369
0	1078384	146.469	0.369
0	1079483	146.67	0.37
0	1080388	146.883	0.383
0	1081687	147.077	0.377
0	1082804	147.268	0.368
0	1083916	147.469	0.369
0	1085007	147.671	0.371
0	1086093	147.868	0.368
0	1087230	148.069	0.369
0	1088351	148.271	0.371
0	1089428	148.469	0.369
0	1090533	148.67	0.37
0	1091632	148.869	0.369
0	1092756	149.068	0.368
0	1093872	149.271	0.371
0	1094757	149.482	0.382
0	1096008	149.672	0.372
0	1097145	149.869	0.369
0	1098282	150.068	0.368
0	1099381	150.269	0.369
0	1100297	150.483	0.383
0	1101316	150.672	0.372
0	1102347	150.869	0.369
0	1103800	151.071	0.371
0	1105013	151.276	0.376
0	1106025	151.483	0.383
0	1107143	151.671	0.371
0	1108096	151.883	0.383
0	1109139	152.069	0.369
0	1110426	152.269	0.369
0	1111647	152.469	0.369
0	1112489	152.669	0.369
0	1113721	152.87	0.37
0	1114756	153.069	0.369
0	1115991	153.271	0.371
0	1117026	153.482	0.382
0	1118255	153.669	0.369
0	1119426	153.871	0.371
0	1120559	154.07	0.37
0	1121656	154.271	0.371
0	1122755	154.471	0.371
0	1123843	154.669	0.369
0	1124740	154.882	0.382
0	1126025	155.069	0.369
0	1126935	155.269	0.369
0	1128168	155.472	0.372
0	1129414	155.669	0.369
0	1130517	155.869	0.369
0	1131651	156.069	0.369
0	1132749	156.269	0.369
0	1133341	156.469	0.369
0	1134536	156.672	0.372
0	1136049	156.868	0.368
0	1137209	157.07	0.37
0	1138048	157.273	0.373
0	1139068	157.49	0.39
0	1140464	157.669	0.369
0	1141621	157.869	0.369
0	1142745	158.068	0.368
0	1143601	158.27	0.37
0	1144809	158.469	0.369
0	1146064	158.669	0.369
0	1147163	158.872	0.372
0	1148306	159.073	0.373
0	1149388	159.269	0.369
0	1150485	159.469	0.369
0	1151575	159.669	0.369
0	1152688	159.871	0.371
0	1153813	160.07	0.37
0	1154650	160.269	0.369
0	1155758	160.524	0.424
0	1156958	160.696	0.396
0	1158269	160.874	0.374
0	1159400	161.069	0.369
0	1160483	161.268	0.368
0	1161589	161.469	0.369
0	1162694	161.67	0.37
0	1163781	161.869	0.369
0	1164931	162.07	0.37
0	1166026	162.271	0.371
0	1167119	162.47	0.37
0	1168205	162.669	0.369
0	1169052	162.869	0.369
0	1170179	163.082	0.382
0	1171506	163.269	0.369
0	1172658	163.469	0.369
0	1173496	163.669	0.369
0	1174729	163.869	0.369
0	1176010	164.07	0.37
0	1176862	164.269	0.369
0	1178079	164.468	0.368
0	1179320	164.67	0.37
0	1180344	164.887	0.387
0	1181532	165.079	0.379
0	1182679	165.276	0.376
0	1183759	165.47	0.37
0	1184884	165.67	0.37
0	1185722	165.871	0.371
0	1186989	166.069	0.369
0	1188201	166.268	0.368
0	1189078	166.469	0.369
0	1190047	166.669	0.369
0	1191011	166.883	0.383
0	1192490	167.07	0.37
0	1193827	167.269	0.369
0	1194935	167.469	0.369
0	1196028	167.67	0.37
0	1197121	167.87	0.37
0	1198069	168.083	0.383
0	1199286	168.269	0.369
0	1200451	168.469	0.369
0	1201114	168.695	0.395
0	1202457	168.894	0.394
0	1203815	169.072	0.372
0	1204906	169.269	0.369
0	1205809	169.482	0.382
0	1207049	169.669	0.369
0	1208192	169.868	0.368
0	1209361	170.075	0.375
0	1210440	170.269	0.369
0	1211545	170.471	0.371
0	1212657	170.669	0.369
0	1213753	170.869	0.369
0	1214893	171.069	0.369
0	1215742	171.269	0.369
0	1216715	171.471	0.371
0	1218099	171.67	0.37
0	1219333	171.876	0.376
0	1220457	172.07	0.37
0	1221490	172.285	0.385
0	1222602	172.47	0.37
0	1223757	172.67	0.37
0	1224880	172.879	0.379
0	1225992	173.069	0.369
0	1227088	173.271	0.371
0	1228187	173.47	0.37
0	1229274	173.67	0.37
0	1230290	173.885	0.385
0	1231473	174.071	0.371
0	1232618	174.269	0.369
0	1233721	174.471	0.371
0	1234809	174.669	0.369
0	1235707	174.882	0.382
0	1236981	175.068	0.368
0	1238147	175.269	0.369
0	1238965	175.469	0.369
0	1239734	175.67	0.37
0	1240463	175.869	0.369
0	1241065	176.083	0.383
0	1241972	176.269	0.369
0	1242801	176.469	0.369
0	1261675	187.268	7.168
0	1261680	187.268	6.168
0	1261682	187.268	5.768
0	1261684	187.268	5.168
0	1261691	187.268	4.168
0	1261699	187.268	3.168
0	1261701	187.268	2.968
0	1261712	187.268	1.168
0	1261975	187.269	10.969
0	1261981	187.269	10.569
0	1261996	187.269	9.969
0	1262003	187.269	9.769
0	1262031	187.269	8.569
0	1262039	187.269	8.169
0	1262050	187.269	7.769
0	1262056	187.269	7.569
0	1262060	187.269	7.369
0	1262074	187.269	6.969
0	1262087	187.269	6.369
0	1262097	187.269	5.969
0	1262125	187.269	4.969
0	1262130	187.269	4.769
0	1262167	187.269	3.369
0	1262213	187.269	0.969
0	1262220	187.269	0.569
0	1262226	187.269	0.369
0	1262354	187.27	10.77
0	1262365	187.27	10.17
0	1262371	187.27	9.57
0	1262405	187.27	6.77
0	1262408	187.27	6.57
0	1262451	187.27	2.17
0	1262454	187.27	1.97
0	1262460	187.27	1.77
0	1262473	187.27	0.77
0	1262544	187.271	9.371
0	1262559	187.271	5.371
0	1262570	187.271	2.771
0	1262575	187.271	2.571
0	1262582	187.271	1.571
0	1262626	187.272	10.372
0	1262631	187.272	8.972
0	1262632	187.272	8.772
0	1262635	187.272	8.372
0	1262645	187.272	3.972
0	1262646	187.272	3.572
0	1262654	187.272	1.372
0	1262684	187.273	9.173
0	1262691	187.273	4.573
0	1262726	187.274	7.974
0	1262732	187.274	5.574
0	1262754	187.275	4.375
0	1262755	187.275	2.375
0	1263842	187.294	3.794
0	1267746	187.68	0.58
0	1267761	187.681	0.381
0	1268319	187.873	0.373
0	1268826	188.069	0.369
0	1269293	188.269	0.369
0	1269768	188.473	0.373
0	1270231	188.671	0.371
0	1270694	188.869	0.369
0	1271197	189.068	0.368
0	1271678	189.273	0.373
0	1272137	189.471	0.371
1	6454	10.128	0.228
1	8290	10.329	0.229
1	10094	10.527	0.227
1	11924	10.727	0.227
1	13877	10.977	0.277
1	15416	11.178	0.278
1	16969	11.35	0.25
1	18901	11.529	0.229
1	20947	11.727	0.227
1	22726	11.927	0.227
1	24559	12.127	0.227
1	26352	12.329	0.229
1	28136	12.527	0.227
1	29825	12.731	0.231
1	31302	12.932	0.232
1	33388	13.178	0.278
1	35242	13.38	0.28
1	36940	13.546	0.246
1	38875	13.727	0.227
1	40753	13.928	0.228
1	42589	14.178	0.278
1	43768	14.382	0.282
1	45014	14.546	0.246
1	47542	14.731	0.231
1	49650	14.927	0.227
1	51170	15.127	0.227
1	53213	15.328	0.228
1	55129	15.532	0.232
1	57077	15.729	0.229
1	58856	15.93	0.23
1	60681	16.127	0.227
1	62473	16.328	0.228
1	64271	16.531	0.231
1	65794	16.727	0.227
1	66950	16.927	0.227
1	69112	17.127	0.227
1	71566	17.379	0.279
1	72985	17.578	0.278
1	74496	17.746	0.246
1	76614	17.929	0.229
1	78203	18.128	0.228
1	79720	18.327	0.227
1	82315	18.527	0.227
1	84151	18.727	0.227
1	85832	18.93	0.23
1	87400	19.128	0.228
1	88967	19.327	0.227
1	90976	19.529	0.229
1	93058	19.728	0.228
1	94895	19.977	0.277
1	96672	20.177	0.277
1	98436	20.349	0.249
1	100397	20.529	0.229
1	102281	20.727	0.227
1	104075	20.927	0.227
1	105661	21.128	0.228
1	106991	21.328	0.228
1	108536	21.528	0.228
1	110824	21.728	0.228
1	112349	21.927	0.227
1	114990	22.134	0.234
1	116520	22.328	0.228
1	117976	22.527	0.227
1	120376	22.734	0.234
1	122022	22.928	0.228
1	123841	23.128	0.228
1	125767	23.328	0.228
1	127555	23.529	0.229
1	129210	23.728	0.228
1	130733	23.934	0.234
1	132573	24.127	0.227
1	134785	24.332	0.232
1	136553	24.527	0.227
1	138335	24.727	0.227
1	140324	24.98	0.28
1	141642	25.177	0.277
1	142953	25.354	0.254
1	145009	25.527	0.227
1	147465	25.728	0.228
1	149138	25.928	0.228
1	150524	26.127	0.227
1	152847	26.338	0.238
1	154664	26.577	0.277
1	156051	26.892	0.392
1	157095	26.948	0.248
1	160216	27.179	0.279
1	161798	27.378	0.278
1	163509	27.546	0.246
1	165344	27.727	0.227
1	167058	27.927	0.227
1	168716	28.127	0.227
1	170964	28.378	0.278
1	172126	28.578	0.278
1	173602	28.752	0.252
1	175872	28.977	0.277
1	177910	29.181	0.281
1	179432	29.348	0.248
1	181610	29.529	0.229
1	183613	29.727	0.227
1	185404	29.927	0.227
1	187120	30.134	0.234
1	188926	30.379	0.279
1	190239	30.577	0.277
1	191732	30.778	0.278
1	194121	31.1	0.4
1	195325	31.177	0.277
1	196684	31.329	0.229
1	199794	31.579	0.279
1	201673	31.781	0.281
1	203259	31.953	0.253
1	205236	32.127	0.227
1	207430	32.379	0.279
1	208899	32.578	0.278
1	210620	32.749	0.249
1	212327	32.93	0.23
1	214053	33.179	0.279
1	215632	33.378	0.278
1	217368	33.577	0.277
1	219565	33.764	0.264
1	221564	33.932	0.232
1	223526	34.127	0.227
1	225209	34.33	0.23
1	226550	34.528	0.228
1	228303	34.727	0.227
1	230317	34.98	0.28
1	232267	35.178	0.278
1	233548	35.379	0.279
1	235285	35.578	0.278
1	237175	35.769	0.269
1	239433	35.928	0.228
1	241771	36.132	0.232
1	243526	36.327	0.227
1	245319	36.528	0.228
1	247106	36.728	0.228
1	248887	36.927	0.227
1	250598	37.128	0.228
1	252066	37.327	0.227
1	254231	37.527	0.227
1	255841	37.728	0.228
1	257299	37.927	0.227
1	259522	38.133	0.233
1	260642	38.327	0.227
1	262641	38.527	0.227
1	264516	38.727	0.227
1	266070	38.928	0.228
1	268356	39.127	0.227
1	270336	39.327	0.227
1	272413	39.528	0.228
1	274078	39.727	0.227
1	275443	39.931	0.231
1	277656	40.127	0.227
1	279636	40.328	0.228
1	281461	40.529	0.229
1	283152	40.727	0.227
1	284797	40.927	0.227
1	286464	41.128	0.228
1	287820	41.328	0.228
1	289309	41.528	0.228
1	291892	41.754	0.254
1	294046	41.928	0.228
1	295840	42.127	0.227
1	297608	42.327	0.227
1	299574	42.581	0.281
1	300532	42.78	0.28
1	302019	42.947	0.247
1	303831	43.127	0.227
1	306993	43.38	0.28
1	308465	43.579	0.279
1	310066	43.781	0.281
1	311608	43.985	0.285
1	313136	44.173	0.273
1	314531	44.33	0.23
1	317046	44.529	0.229
1	319433	44.73	0.23
1	321429	44.979	0.279
1	322919	45.177	0.277
1	324652	45.346	0.246
1	326629	45.527	0.227
1	328552	45.731	0.231
1	330495	45.978	0.278
1	332057	46.183	0.283
1	333742	46.346	0.246
1	335704	46.528	0.228
1	337549	46.729	0.229
1	339207	46.927	0.227
1	340737	47.129	0.229
1	342916	47.327	0.227
1	344636	47.529	0.229
1	346097	47.727	0.227
1	348174	47.928	0.228
1	349970	48.127	0.227
1	351956	48.327	0.227
1	353744	48.528	0.228
1	355298	48.729	0.229
1	356452	48.928	0.228
1	358749	49.131	0.231
1	360834	49.327	0.227
1	362623	49.528	0.228
1	364556	49.729	0.229
1	366333	49.927	0.227
1	368197	50.154	0.254
1	369772	50.327	0.227
1	371673	50.528	0.228
1	373173	50.727	0.227
1	375366	50.927	0.227
1	377235	51.127	0.227
1	379028	51.328	0.228
1	380687	51.527	0.227
1	382480	51.731	0.231
1	384393	51.928	0.228
1	386118	52.133	0.233
1	387871	52.328	0.228
1	389802	52.527	0.227
1	391594	52.729	0.229
1	393542	52.977	0.277
1	394899	53.18	0.28
1	396650	53.346	0.246
1	398789	53.528	0.228
1	400480	53.727	0.227
1	402290	53.931	0.231
1	404425	54.178	0.278
1	405884	54.377	0.277
1	407337	54.578	0.278
1	408830	54.779	0.279
1	410351	54.986	0.286
1	411590	55.181	0.281
1	413119	55.328	0.228
1	417033	55.578	0.278
1	418341	55.779	0.279
1	419346	55.979	0.279
1	420431	56.185	0.285
1	422112	56.33	0.23
1	424857	56.528	0.228
1	426502	56.727	0.227
1	428710	56.927	0.227
1	431425	57.128	0.228
1	433202	57.327	0.227
1	435012	57.528	0.228
1	436484	57.728	0.228
1	438317	57.927	0.227
1	440554	58.127	0.227
1	442216	58.327	0.227
1	443683	58.527	0.227
1	445728	58.727	0.227
1	447779	58.977	0.277
1	449423	59.177	0.277
1	451297	59.373	0.273
1	452964	59.527	0.227
1	454810	59.727	0.227
1	456753	59.927	0.227
1	458567	60.127	0.227
1	460359	60.327	0.227
1	462189	60.53	0.23
1	463778	60.729	0.229
1	465486	60.927	0.227
1	467846	61.179	0.279
1	469323	61.379	0.279
1	471076	61.551	0.251
1	472916	61.727	0.227
1	474824	61.928	0.228
1	476547	62.129	0.229
1	477938	62.377	0.277
1	478949	62.577	0.277
1	480275	62.75	0.25
1	482308	62.927	0.227
1	485487	63.127	0.227
1	487172	63.377	0.277
1	488857	63.699	0.399
1	490456	63.866	0.366
1	491945	63.979	0.279
1	493861	64.168	0.268
1	495930	64.378	0.278
1	497740	64.577	0.277
1	499006	64.746	0.246
1	501862	64.977	0.277
1	503986	65.292	0.392
1	505028	65.361	0.261
1	506982	65.527	0.227
1	508866	65.779	0.279
1	509877	65.979	0.279
1	511253	66.146	0.246
1	514217	66.378	0.278
1	516500	66.579	0.279
1	518186	66.747	0.247
1	520403	66.978	0.278
1	521935	67.18	0.28
1	523694	67.355	0.255
1	525424	67.529	0.229
1	527304	67.727	0.227
1	529128	67.929	0.229
1	530514	68.127	0.227
1	532516	68.327	0.227
1	534285	68.527	0.227
1	535894	68.729	0.229
1	537807	68.978	0.278
1	539181	69.178	0.278
1	540744	69.346	0.246
1	542357	69.527	0.227
1	545182	69.727	0.227
1	547371	69.928	0.228
1	549201	70.127	0.227
1	551187	70.354	0.254
1	552560	70.527	0.227
1	554058	70.727	0.227
1	556400	70.927	0.227
1	558139	71.127	0.227
1	559907	71.327	0.227
1	561721	71.527	0.227
1	563510	71.729	0.229
1	565429	71.927	0.227
1	567020	72.127	0.227
1	568342	72.327	0.227
1	569981	72.58	0.28
1	571366	72.778	0.278
1	572495	72.979	0.279
1	573651	73.178	0.278
1	574776	73.378	0.278
1	575696	73.577	0.277
1	577673	73.728	0.228
1	580156	73.929	0.229
1	581779	74.127	0.227
1	583104	74.328	0.228
1	584236	74.528	0.228
1	585919	74.729	0.229
1	587447	74.927	0.227
1	588917	75.127	0.227
1	590443	75.336	0.236
1	591291	75.527	0.227
1	592929	75.727	0.227
1	594474	75.928	0.228
1	596400	76.13	0.23
1	597852	76.327	0.227
1	599420	76.578	0.278
1	600766	76.761	0.261
1	602126	76.927	0.227
1	603696	77.127	0.227
1	605261	77.378	0.278
1	606433	77.562	0.262
1	607823	77.727	0.227
1	609504	77.928	0.228
1	610867	78.127	0.227
1	612297	78.327	0.227
1	613763	78.528	0.228
1	615183	78.728	0.228
1	616653	78.928	0.228
1	617815	79.127	0.227
1	619705	79.328	0.228
1	621037	79.528	0.228
1	622453	79.728	0.228
1	624036	79.927	0.227
1	625416	80.133	0.233
1	626534	80.33	0.23
1	628201	80.527	0.227
1	629905	80.728	0.228
1	631360	80.927	0.227
1	632839	81.127	0.227
1	634289	81.328	0.228
1	635728	81.529	0.229
1	637160	81.727	0.227
1	638648	81.935	0.235
1	640088	82.127	0.227
1	641519	82.327	0.227
1	642970	82.528	0.228
1	644407	82.727	0.227
1	645732	82.928	0.228
1	646892	83.127	0.227
1	648605	83.328	0.228
1	650087	83.527	0.227
1	651680	83.728	0.228
1	653265	83.981	0.281
1	654563	84.177	0.277
1	656140	84.378	0.278
1	657399	84.527	0.227
1	658990	84.73	0.23
1	660432	84.928	0.228
1	661789	85.127	0.227
1	663348	85.377	0.277
1	664514	85.56	0.26
1	665686	85.727	0.227
1	667797	85.93	0.23
1	669196	86.132	0.232
1	670592	86.328	0.228
1	672184	86.529	0.229
1	673653	86.733	0.233
1	675071	86.931	0.231
1	676418	87.127	0.227
1	677849	87.327	0.227
1	679427	87.527	0.227
1	680902	87.733	0.233
1	682313	87.927	0.227
1	683804	88.127	0.227
1	685249	88.328	0.228
1	686692	88.529	0.229
1	688120	88.727	0.227
1	689557	88.927	0.227
1	691050	89.128	0.228
1	692491	89.328	0.228
1	693929	89.528	0.228
1	695258	89.728	0.228
1	696372	89.927	0.227
1	698258	90.127	0.227
1	699745	90.327	0.227
1	701158	90.537	0.237
1	702428	90.728	0.228
1	703870	90.93	0.23
1	705461	91.132	0.232
1	707270	91.36	0.26
1	708522	91.527	0.227
1	710011	91.734	0.234
1	711419	91.929	0.229
1	712907	92.131	0.231
1	714330	92.327	0.227
1	715641	92.527	0.227
1	717121	92.735	0.235
1	718660	92.928	0.228
1	720085	93.181	0.281
1	721307	93.384	0.284
1	722968	93.596	0.296
1	724235	93.728	0.228
1	725887	93.932	0.232
1	727032	94.128	0.228
1	728848	94.327	0.227
1	730254	94.53	0.23
1	731667	94.727	0.227
1	733251	94.927	0.227
1	734748	95.128	0.228
1	736185	95.327	0.227
1	737648	95.527	0.227
1	739114	95.727	0.227
1	740580	95.931	0.231
1	742039	96.128	0.228
1	743490	96.329	0.229
1	744930	96.53	0.23
1	746362	96.727	0.227
1	747808	96.928	0.228
1	749412	97.14	0.24
1	750737	97.33	0.23
1	752160	97.527	0.227
1	753612	97.728	0.228
1	755050	97.928	0.228
1	756541	98.13	0.23
1	757964	98.327	0.227
1	759294	98.529	0.229
1	760721	98.729	0.229
1	762171	98.927	0.227
1	763354	99.128	0.228
1	765196	99.327	0.227
1	766672	99.527	0.227
1	768126	99.728	0.228
1	769563	99.927	0.227
1	771047	100.127	0.227
1	772489	100.327	0.227
1	773949	100.527	0.227
1	775532	100.777	0.277
1	776737	100.96	0.26
1	777862	101.127	0.227
1	779815	101.332	0.232
1	781035	101.527	0.227
1	782150	101.727	0.227
1	784105	101.929	0.229
1	785682	102.13	0.23
1	787105	102.327	0.227
1	788458	102.532	0.232
1	789551	102.727	0.227
1	791388	102.927	0.227
1	792713	103.143	0.243
1	794101	103.327	0.227
1	795724	103.531	0.231
1	797141	103.728	0.228
1	798729	103.928	0.228
1	800219	104.128	0.228
1	801669	104.331	0.231
1	803093	104.527	0.227
1	804553	104.731	0.231
1	805840	104.928	0.228
1	807024	105.128	0.228
1	808792	105.332	0.232
1	810238	105.527	0.227
1	812049	105.899	0.399
1	812786	105.956	0.256
1	814537	106.128	0.228
1	816254	106.328	0.228
1	817685	106.527	0.227
1	819127	106.727	0.227
1	820565	106.927	0.227
1	822054	107.127	0.227
1	823496	107.33	0.23
1	824927	107.527	0.227
1	826373	107.728	0.228
1	827859	107.934	0.234
1	829294	108.127	0.227
1	830741	108.329	0.229
1	832053	108.527	0.227
1	833486	108.727	0.227
1	834943	108.927	0.227
1	836359	109.127	0.227
1	837924	109.327	0.227
1	839447	109.527	0.227
1	840892	109.728	0.228
1	842208	109.928	0.228
1	843379	110.127	0.227
1	845176	110.327	0.227
1	846619	110.53	0.23
1	847771	110.729	0.229
1	849776	110.978	0.278
1	851100	111.177	0.277
1	852651	111.377	0.277
1	853818	111.532	0.232
1	855392	111.727	0.227
1	856988	111.928	0.228
1	858345	112.127	0.227
1	859716	112.327	0.227
1	861371	112.53	0.23
1	862925	112.778	0.278
1	864253	112.959	0.259
1	865676	113.127	0.227
1	867205	113.33	0.23
1	868646	113.531	0.231
1	869959	113.728	0.228
1	871376	113.927	0.227
1	873014	114.127	0.227
1	874452	114.327	0.227
1	875900	114.529	0.229
1	877331	114.729	0.229
1	878762	114.927	0.227
1	880256	115.128	0.228
1	881699	115.327	0.227
1	883168	115.53	0.23
1	884625	115.727	0.227
1	886100	115.934	0.234
1	887542	116.127	0.227
1	889102	116.377	0.277
1	890470	116.563	0.263
1	891818	116.727	0.227
1	893220	116.928	0.228
1	894700	117.128	0.228
1	896285	117.328	0.228
1	897600	117.527	0.227
1	898900	117.727	0.227
1	900170	117.927	0.227
1	901679	118.128	0.228
1	903457	118.328	0.228
1	905019	118.527	0.227
1	906344	118.728	0.228
1	907781	118.931	0.231
1	909394	119.127	0.227
1	910822	119.327	0.227
1	912278	119.527	0.227
1	913712	119.727	0.227
1	915165	119.93	0.23
1	916520	120.127	0.227
1	917647	120.328	0.228
1	919500	120.527	0.227
1	920928	120.732	0.232
1	922034	120.928	0.228
1	923876	121.127	0.227
1	925455	121.335	0.235
1	926866	121.532	0.232
1	928401	121.777	0.277
1	929570	121.961	0.261
1	931055	122.131	0.231
1	932702	122.329	0.229
1	934028	122.528	0.228
1	935162	122.729	0.229
1	936918	122.93	0.23
1	938398	123.129	0.229
1	939985	123.33	0.23
1	941428	123.53	0.23
1	942990	123.779	0.279
1	944152	123.961	0.261
1	945296	124.127	0.227
1	946697	124.327	0.227
1	948118	124.528	0.228
1	950036	124.727	0.227
1	951677	124.927	0.227
1	953164	125.127	0.227
1	954518	125.332	0.232
1	955658	125.531	0.231
1	957661	125.777	0.277
1	958792	125.979	0.279
1	959926	126.186	0.286
1	961510	126.332	0.232
1	963454	126.528	0.228
1	964895	126.728	0.228
1	966320	126.927	0.227
1	967813	127.127	0.227
1	969251	127.327	0.227
1	970695	127.529	0.229
1	972009	127.727	0.227
1	973440	127.928	0.228
1	974967	128.132	0.232
1	976377	128.327	0.227
1	977953	128.527	0.227
1	979403	128.728	0.228
1	980843	128.929	0.229
1	982317	129.127	0.227
1	983618	129.327	0.227
1	984714	129.527	0.227
1	985818	129.728	0.228
1	986909	129.928	0.228
1	988046	130.127	0.227
1	989142	130.327	0.227
1	990540	130.698	0.398
1	991298	130.758	0.258
1	992389	130.927	0.227
1	993620	131.127	0.227
1	994745	131.333	0.233
1	995815	131.528	0.228
1	996939	131.731	0.231
1	998136	131.962	0.262
1	999153	132.129	0.229
1	1000241	132.328	0.228
1	1001333	132.527	0.227
1	1002462	132.732	0.232
1	1003518	132.927	0.227
1	1004669	133.129	0.229
1	1005783	133.331	0.231
1	1006853	133.527	0.227
1	1007961	133.73	0.23
1	1009033	133.927	0.227
1	1010476	134.299	0.399
1	1011204	134.358	0.258
1	1012323	134.53	0.23
1	1013772	134.898	0.398
1	1014757	135.052	0.352
1	1015473	135.127	0.227
1	1016860	135.329	0.229
1	1017965	135.529	0.229
1	1019076	135.729	0.229
1	1020163	135.929	0.229
1	1021294	136.127	0.227
1	1022393	136.327	0.227
1	1023489	136.527	0.227
1	1024594	136.729	0.229
1	1025678	136.927	0.227
1	1026696	137.127	0.227
1	1027494	137.33	0.23
1	1028914	137.541	0.241
1	1030142	137.73	0.23
1	1031226	137.927	0.227
1	1032359	138.127	0.227
1	1034035	138.558	0.458
1	1034047	138.561	0.261
1	1035388	138.727	0.227
1	1036768	138.927	0.227
1	1038194	139.298	0.398
1	1038962	139.36	0.26
1	1040730	139.701	0.401
1	1041434	139.898	0.398
1	1042382	139.996	0.296
1	1043884	140.3	0.4
1	1044568	140.361	0.261
1	1045527	140.527	0.227
1	1047089	140.898	0.398
1	1047914	140.968	0.268
1	1048921	141.13	0.23
1	1050083	141.331	0.231
1	1051308	141.527	0.227
1	1052407	141.729	0.229
1	1053504	141.929	0.229
1	1054641	142.127	0.227
1	1056026	142.499	0.399
1	1056951	142.659	0.359
1	1057666	142.727	0.227
1	1059074	142.931	0.231
1	1060199	143.131	0.231
1	1061279	143.327	0.227
1	1062383	143.528	0.228
1	1063351	143.728	0.228
1	1064482	143.936	0.236
1	1065715	144.127	0.227
1	1066809	144.327	0.227
1	1067928	144.531	0.231
1	1069609	144.901	0.401
1	1070071	144.962	0.262
1	1071186	145.129	0.229
1	1072243	145.329	0.229
1	1072915	145.528	0.228
1	1074252	145.728	0.228
1	1075658	145.951	0.251
1	1076859	146.127	0.227
1	1077966	146.331	0.231
1	1079050	146.53	0.23
1	1080022	146.727	0.227
1	1081108	146.928	0.228
1	1082384	147.128	0.228
1	1083485	147.328	0.228
1	1084580	147.53	0.23
1	1085674	147.728	0.228
1	1086765	147.928	0.228
1	1087945	148.135	0.235
1	1089001	148.327	0.227
1	1090121	148.532	0.232
1	1091183	148.727	0.227
1	1092291	148.928	0.228
1	1093426	149.128	0.228
1	1094399	149.327	0.227
1	1095472	149.527	0.227
1	1096735	149.732	0.232
1	1097808	149.927	0.227
1	1098952	150.127	0.227
1	1099939	150.329	0.229
1	1101418	150.698	0.398
1	1102076	150.759	0.259
1	1102883	150.928	0.228
1	1104527	151.128	0.228
1	1105540	151.328	0.228
1	1106615	151.527	0.227
1	1107739	151.729	0.229
1	1109281	152.099	0.399
1	1110028	152.158	0.258
1	1111140	152.328	0.228
1	1112202	152.529	0.229
1	1113303	152.745	0.245
1	1115179	153.102	0.402
1	1115602	153.159	0.259
1	1116578	153.327	0.227
1	1117746	153.529	0.229
1	1118986	153.728	0.228
1	1120079	153.929	0.229
1	1121248	154.133	0.233
1	1122309	154.327	0.227
1	1123416	154.53	0.23
1	1124377	154.727	0.227
1	1125469	154.93	0.23
1	1127348	155.302	0.402
1	1127790	155.359	0.259
1	1128887	155.527	0.227
1	1130077	155.727	0.227
1	1131202	155.932	0.232
1	1132323	156.129	0.229
1	1133628	156.518	0.418
1	1133985	156.557	0.257
1	1135335	156.728	0.228
1	1136725	156.927	0.227
1	1137752	157.129	0.229
1	1138402	157.327	0.227
1	1139705	157.529	0.229
1	1141174	157.727	0.227
1	1142279	157.928	0.228
1	1143289	158.127	0.227
1	1144084	158.328	0.228
1	1145752	158.561	0.261
1	1146819	158.754	0.254
1	1147809	158.927	0.227
1	1148955	159.127	0.227
1	1150100	159.335	0.235
1	1151152	159.529	0.229
1	1152247	159.728	0.228
1	1153341	159.929	0.229
1	1154360	160.128	0.228
1	1155805	160.53	0.43
1	1156134	160.558	0.258
1	1157507	160.727	0.227
1	1158956	160.933	0.233
1	1160067	161.13	0.23
1	1161174	161.331	0.231
1	1162259	161.528	0.228
1	1163358	161.729	0.229
1	1164447	161.928	0.228
1	1165590	162.129	0.229
1	1166677	162.328	0.228
1	1167786	162.528	0.228
1	1168753	162.729	0.229
1	1169412	162.927	0.227
1	1171004	163.131	0.231
1	1172229	163.327	0.227
1	1173202	163.527	0.227
1	1173982	163.727	0.227
1	1175499	163.928	0.228
1	1176960	164.299	0.399
1	1177726	164.36	0.26
1	1178808	164.528	0.228
1	1179852	164.727	0.227
1	1180929	164.927	0.227
1	1182226	165.129	0.229
1	1183317	165.327	0.227
1	1184427	165.527	0.227
1	1185466	165.736	0.236
1	1186195	165.927	0.227
1	1187711	166.128	0.228
1	1189173	166.499	0.399
1	1189783	166.561	0.261
1	1190461	166.727	0.227
1	1191620	166.93	0.23
1	1193288	167.129	0.229
1	1194492	167.327	0.227
1	1195583	167.527	0.227
1	1196693	167.729	0.229
1	1197665	167.93	0.23
1	1198746	168.127	0.227
1	1200019	168.327	0.227
1	1201139	168.699	0.399
1	1201656	168.759	0.259
1	1203021	168.928	0.228
1	1204478	169.128	0.228
1	1205450	169.327	0.227
1	1206532	169.529	0.229
1	1207792	169.731	0.231
1	1208865	169.927	0.227
1	1210001	170.127	0.227
1	1211103	170.328	0.228
1	1212242	170.532	0.232
1	1213326	170.729	0.229
1	1214429	170.93	0.23
1	1215828	171.298	0.398
1	1216455	171.359	0.259
1	1217249	171.527	0.227
1	1218829	171.727	0.227
1	1219968	171.927	0.227
1	1221014	172.131	0.231
1	1222082	172.328	0.228
1	1223326	172.528	0.228
1	1224419	172.728	0.228
1	1225511	172.929	0.229
1	1226650	173.127	0.227
1	1227743	173.327	0.227
1	1228849	173.529	0.229
1	1229813	173.729	0.229
1	1230902	173.928	0.228
1	1232187	174.128	0.228
1	1233304	174.332	0.232
1	1234403	174.533	0.233
1	1235356	174.728	0.228
1	1236430	174.927	0.227
1	1237714	175.127	0.227
1	1238674	175.327	0.227
1	1239442	175.527	0.227
1	1240194	175.727	0.227
1	1240825	175.927	0.227
1	1241617	176.13	0.23
1	1242510	176.329	0.229
1	1265057	187.314	9.014
1	1265060	187.314	8.414
1	1265064	187.314	8.014
1	1265084	187.314	3.414
1	1265091	187.314	2.414
1	1265101	187.314	1.014
1	1265102	187.314	0.814
1	1265338	187.315	10.415
1	1265345	187.315	10.015
1	1265356	187.315	9.615
1	1265365	187.315	9.215
1	1265373	187.315	8.815
1	1265387	187.315	8.215
1	1265409	187.315	7.015
1	1265413	187.315	6.815
1	1265433	187.315	5.815
1	1265456	187.315	4.815
1	1265464	187.315	4.415
1	1265475	187.315	4.015
1	1265478	187.315	3.815
1	1265503	187.315	2.615
1	1265509	187.315	2.215
1	1265519	187.315	1.615
1	1265546	187.315	0.415
1	1265912	187.316	10.816
1	1265959	187.316	9.416
1	1265985	187.316	8.616
1	1266017	187.316	7.816
1	1266073	187.316	6.216
1	1266079	187.316	6.016
1	1266093	187.316	5.616
1	1266163	187.316	3.216
1	1266208	187.316	1.816
1	1266246	187.316	0.616
1	1266456	187.317	10.617
1	1266463	187.317	10.217
1	1266507	187.317	7.417
1	1266548	187.317	5.017
1	1266559	187.317	4.217
1	1266588	187.317	2.817
1	1266608	187.317	2.017
1	1266621	187.317	1.217
1	1266752	187.318	7.618
1	1266773	187.318	5.418
1	1266789	187.318	3.618
1	1266864	187.319	9.819
1	1266880	187.319	6.419
1	1266901	187.319	1.419
1	1266949	187.32	11.02
1	1267058	187.323	3.023
1	1267089	187.333	6.633
1	1267479	187.528	5.428
1	1268083	187.727	0.427
1	1268130	187.729	0.629
1	1268546	187.914	0.414
1	1269063	188.115	0.415
1	1269546	188.316	0.416
1	1270013	188.516	0.416
1	1270468	188.716	0.416
1	1270926	188.914	0.414
1	1271459	189.116	0.416
1	1271910	189.315	0.415
1	1272276	189.516	0.416
2	6497	10.131	0.231
2	8305	10.332	0.232
2	10163	10.536	0.236
2	11943	10.731	0.231
2	13596	10.931	0.231
2	15141	11.133	0.233
2	16930	11.349	0.249
2	19059	11.535	0.235
2	20964	11.731	0.231
2	22748	11.931	0.231
2	24614	12.134	0.234
2	26366	12.331	0.231
2	28161	12.531	0.231
2	29822	12.731	0.231
2	31292	12.931	0.231
2	33038	13.131	0.231
2	34957	13.334	0.234
2	36793	13.535	0.235
2	38984	13.733	0.233
2	40771	13.932	0.232
2	42341	14.131	0.231
2	43510	14.331	0.231
2	45061	14.55	0.25
2	47540	14.731	0.231
2	49682	14.932	0.232
2	51199	15.132	0.232
2	53405	15.349	0.249
2	55126	15.532	0.232
2	57122	15.736	0.236
2	58894	15.934	0.234
2	60706	16.132	0.232
2	62610	16.34	0.24
2	64270	16.531	0.231
2	65821	16.732	0.232
2	66971	16.931	0.231
2	69304	17.16	0.26
2	71221	17.331	0.231
2	72744	17.531	0.231
2	74143	17.731	0.231
2	76658	17.931	0.231
2	78233	18.133	0.233
2	80022	18.336	0.236
2	82372	18.531	0.231
2	84173	18.731	0.231
2	85848	18.932	0.232
2	87413	19.131	0.231
2	89023	19.331	0.231
2	91013	19.534	0.234
2	93082	19.732	0.232
2	94427	19.932	0.232
2	96394	20.132	0.232
2	98240	20.332	0.232
2	100454	20.532	0.232
2	102307	20.731	0.231
2	104104	20.933	0.233
2	105693	21.133	0.233
2	107014	21.332	0.232
2	108812	21.533	0.233
2	110891	21.733	0.233
2	112374	21.931	0.231
2	114917	22.131	0.231
2	116552	22.333	0.233
2	118002	22.531	0.231
2	120395	22.736	0.236
2	122128	22.949	0.249
2	123881	23.134	0.234
2	125782	23.331	0.231
2	127569	23.531	0.231
2	129232	23.731	0.231
2	130708	23.932	0.232
2	132586	24.131	0.231
2	134816	24.335	0.235
2	136584	24.532	0.232
2	138359	24.731	0.231
2	140013	24.931	0.231
2	141423	25.131	0.231
2	142826	25.333	0.233
2	145315	25.559	0.259
2	147498	25.733	0.233
2	149149	25.931	0.231
2	150884	26.15	0.25
2	152760	26.332	0.232
2	154543	26.549	0.249
2	155527	26.749	0.249
2	157147	26.951	0.251
2	159731	27.133	0.233
2	161502	27.331	0.231
2	163335	27.531	0.231
2	165528	27.749	0.249
2	167081	27.931	0.231
2	168741	28.131	0.231
2	170878	28.359	0.259
2	172009	28.541	0.241
2	173411	28.731	0.231
2	175095	28.931	0.231
2	177573	29.132	0.232
2	179061	29.332	0.232
2	181682	29.532	0.232
2	183639	29.731	0.231
2	185427	29.932	0.232
2	187240	30.152	0.252
2	188654	30.331	0.231
2	190003	30.531	0.231
2	191449	30.732	0.232
2	192823	30.933	0.233
2	194682	31.133	0.233
2	197728	31.421	0.321
2	199085	31.532	0.232
2	201340	31.732	0.232
2	203075	31.931	0.231
2	205311	32.132	0.232
2	207153	32.336	0.236
2	208606	32.532	0.232
2	210450	32.734	0.234
2	212375	32.931	0.231
2	213785	33.132	0.232
2	215339	33.333	0.233
2	217136	33.531	0.231
2	218808	33.731	0.231
2	221615	33.937	0.237
2	223553	34.131	0.231
2	225347	34.341	0.241
2	226839	34.535	0.235
2	228395	34.734	0.234
2	230033	34.935	0.235
2	232020	35.131	0.231
2	233480	35.36	0.26
2	235109	35.559	0.259
2	237063	35.751	0.251
2	239454	35.931	0.231
2	241757	36.131	0.231
2	243562	36.332	0.232
2	245373	36.536	0.236
2	247143	36.734	0.234
2	248911	36.932	0.232
2	250642	37.134	0.234
2	252087	37.331	0.231
2	254290	37.531	0.231
2	255882	37.734	0.234
2	257653	37.938	0.238
2	259518	38.133	0.233
2	260669	38.331	0.231
2	262727	38.533	0.233
2	264586	38.731	0.231
2	266116	38.935	0.235
2	268514	39.153	0.253
2	270373	39.332	0.232
2	272441	39.533	0.233
2	274109	39.732	0.232
2	275794	39.95	0.25
2	277716	40.131	0.231
2	279669	40.333	0.233
2	281472	40.531	0.231
2	283268	40.749	0.249
2	284830	40.932	0.232
2	286484	41.131	0.231
2	287833	41.331	0.231
2	289598	41.535	0.235
2	291237	41.732	0.232
2	294064	41.931	0.231
2	295868	42.132	0.232
2	297630	42.331	0.231
2	299331	42.533	0.233
2	300478	42.762	0.262
2	301866	42.931	0.231
2	303943	43.132	0.232
2	306650	43.331	0.231
2	308160	43.531	0.231
2	309768	43.731	0.231
2	311249	43.931	0.231
2	312593	44.137	0.237
2	314544	44.331	0.231
2	317055	44.531	0.231
2	319469	44.733	0.233
2	321122	44.931	0.231
2	322665	45.134	0.234
2	324484	45.331	0.231
2	326740	45.534	0.234
2	328549	45.731	0.231
2	330197	45.931	0.231
2	331733	46.131	0.231
2	333590	46.335	0.235
2	335789	46.535	0.235
2	337561	46.731	0.231
2	339226	46.931	0.231
2	340991	47.131	0.231
2	342965	47.331	0.231
2	344650	47.531	0.231
2	346369	47.732	0.232
2	348232	47.932	0.232
2	350027	48.132	0.232
2	351985	48.333	0.233
2	353782	48.534	0.234
2	355309	48.731	0.231
2	356476	48.933	0.233
2	358744	49.131	0.231
2	360953	49.35	0.25
2	362641	49.532	0.232
2	364569	49.731	0.231
2	366365	49.932	0.232
2	368076	50.132	0.232
2	369831	50.331	0.231
2	371737	50.536	0.236
2	373448	50.733	0.233
2	375434	50.932	0.232
2	377251	51.131	0.231
2	379046	51.331	0.231
2	380832	51.553	0.253
2	382492	51.733	0.233
2	384426	51.934	0.234
2	386226	52.15	0.25
2	387890	52.332	0.232
2	389834	52.533	0.233
2	391627	52.733	0.233
2	393273	52.934	0.234
2	394760	53.149	0.249
2	396482	53.331	0.231
2	398830	53.531	0.231
2	400497	53.731	0.231
2	402285	53.931	0.231
2	404124	54.131	0.231
2	405597	54.331	0.231
2	407118	54.535	0.235
2	408429	54.733	0.233
2	409817	54.932	0.232
2	411285	55.131	0.231
2	413157	55.331	0.231
2	416569	55.533	0.233
2	418271	55.759	0.259
2	419285	55.959	0.259
2	420349	56.159	0.259
2	422159	56.334	0.234
2	424902	56.532	0.232
2	426524	56.731	0.231
2	428726	56.931	0.231
2	431434	57.131	0.231
2	433223	57.331	0.231
2	435026	57.531	0.231
2	436532	57.735	0.235
2	438332	57.931	0.231
2	440656	58.138	0.238
2	442240	58.331	0.231
2	443709	58.531	0.231
2	445815	58.732	0.232
2	447471	58.931	0.231
2	449141	59.131	0.231
2	451002	59.334	0.234
2	453164	59.55	0.25
2	454835	59.731	0.231
2	456772	59.931	0.231
2	458585	60.131	0.231
2	460383	60.331	0.231
2	462208	60.532	0.232
2	463827	60.749	0.249
2	465694	60.948	0.248
2	467538	61.131	0.231
2	469020	61.331	0.231
2	470975	61.539	0.239
2	473020	61.731	0.231
2	474835	61.931	0.231
2	476559	62.131	0.231
2	477886	62.36	0.26
2	478887	62.563	0.263
2	480331	62.762	0.262
2	482389	62.931	0.231
2	485579	63.133	0.233
2	486950	63.333	0.233
2	488118	63.532	0.232
2	489715	63.732	0.232
2	491434	63.933	0.233
2	493250	64.131	0.231
2	495150	64.331	0.231
2	497430	64.533	0.233
2	498904	64.731	0.231
2	501563	64.94	0.24
2	503292	65.132	0.232
2	504919	65.351	0.251
2	507004	65.531	0.231
2	508672	65.731	0.231
2	509650	65.931	0.231
2	511116	66.133	0.233
2	513320	66.332	0.232
2	516167	66.531	0.231
2	518025	66.732	0.232
2	520091	66.932	0.232
2	521638	67.131	0.231
2	523530	67.337	0.237
2	525665	67.551	0.251
2	527359	67.735	0.235
2	529149	67.932	0.232
2	530880	68.15	0.25
2	532578	68.331	0.231
2	534428	68.559	0.259
2	535906	68.731	0.231
2	537519	68.932	0.232
2	538939	69.131	0.231
2	540481	69.331	0.231
2	543000	69.561	0.261
2	545372	69.737	0.237
2	547396	69.933	0.233
2	549223	70.131	0.231
2	551009	70.332	0.232
2	552583	70.531	0.231
2	554324	70.731	0.231
2	556447	70.931	0.231
2	558264	71.15	0.25
2	559942	71.331	0.231
2	561865	71.552	0.252
2	563521	71.731	0.231
2	565446	71.931	0.231
2	567137	72.159	0.259
2	568362	72.331	0.231
2	569543	72.531	0.231
2	571090	72.731	0.231
2	572325	72.938	0.238
2	573421	73.131	0.231
2	574550	73.332	0.232
2	575532	73.531	0.231
2	578485	73.789	0.289
2	580167	73.931	0.231
2	581805	74.131	0.231
2	583126	74.331	0.231
2	584255	74.531	0.231
2	585943	74.731	0.231
2	587464	74.931	0.231
2	588992	75.137	0.237
2	590418	75.333	0.233
2	591697	75.593	0.293
2	593036	75.733	0.233
2	594488	75.931	0.231
2	596410	76.131	0.231
2	597874	76.331	0.231
2	599346	76.559	0.259
2	600322	76.732	0.232
2	602158	76.933	0.233
2	603714	77.131	0.231
2	605027	77.331	0.231
2	606390	77.559	0.259
2	607868	77.732	0.232
2	609523	77.931	0.231
2	610992	78.159	0.259
2	612344	78.335	0.235
2	613796	78.534	0.234
2	615241	78.735	0.235
2	616669	78.931	0.231
2	618095	79.133	0.233
2	619904	79.36	0.26
2	621169	79.561	0.261
2	622491	79.733	0.233
2	624065	79.932	0.232
2	625538	80.16	0.26
2	626658	80.36	0.26
2	628247	80.534	0.234
2	629931	80.732	0.232
2	631379	80.931	0.231
2	632893	81.135	0.235
2	634319	81.333	0.233
2	635738	81.531	0.231
2	637185	81.732	0.232
2	638620	81.931	0.231
2	640105	82.131	0.231
2	641543	82.331	0.231
2	642999	82.533	0.233
2	644464	82.736	0.236
2	645863	82.941	0.241
2	647186	83.135	0.235
2	648783	83.359	0.259
2	650114	83.532	0.232
2	651694	83.731	0.231
2	653014	83.931	0.231
2	654349	84.135	0.235
2	655647	84.334	0.234
2	657466	84.534	0.234
2	659004	84.732	0.232
2	660450	84.931	0.231
2	661927	85.164	0.264
2	663126	85.334	0.234
2	664426	85.533	0.233
2	665962	85.733	0.233
2	667816	85.931	0.231
2	669187	86.131	0.231
2	670614	86.332	0.232
2	672199	86.531	0.231
2	673634	86.731	0.231
2	675069	86.931	0.231
2	676447	87.132	0.232
2	677878	87.331	0.231
2	679452	87.531	0.231
2	680951	87.737	0.237
2	682333	87.931	0.231
2	683832	88.133	0.233
2	685278	88.333	0.233
2	686699	88.531	0.231
2	688167	88.735	0.235
2	689587	88.932	0.232
2	691064	89.131	0.231
2	692512	89.332	0.232
2	693956	89.532	0.232
2	695396	89.753	0.253
2	696648	89.933	0.233
2	698321	90.131	0.231
2	699773	90.332	0.232
2	701118	90.532	0.232
2	702462	90.733	0.233
2	703881	90.931	0.231
2	705211	91.131	0.231
2	707220	91.347	0.247
2	708542	91.531	0.231
2	710007	91.734	0.234
2	711433	91.932	0.232
2	712917	92.132	0.232
2	714367	92.333	0.233
2	715668	92.532	0.232
2	717091	92.731	0.231
2	718707	92.934	0.234
2	720023	93.16	0.26
2	720965	93.359	0.259
2	722238	93.531	0.231
2	724254	93.731	0.231
2	726007	93.945	0.245
2	727339	94.137	0.237
2	728900	94.331	0.231
2	730375	94.56	0.26
2	731693	94.731	0.231
2	733312	94.936	0.236
2	734771	95.132	0.232
2	736210	95.331	0.231
2	737663	95.531	0.231
2	739228	95.739	0.239
2	740575	95.931	0.231
2	742083	96.134	0.234
2	743510	96.331	0.231
2	744948	96.532	0.232
2	746387	96.732	0.232
2	747833	96.932	0.232
2	749305	97.131	0.231
2	750749	97.331	0.231
2	752180	97.531	0.231
2	753624	97.731	0.231
2	755070	97.932	0.232
2	756573	98.134	0.234
2	757998	98.332	0.232
2	759407	98.559	0.259
2	760860	98.748	0.248
2	762193	98.931	0.231
2	763640	99.134	0.234
2	765254	99.331	0.231
2	766698	99.531	0.231
2	768133	99.731	0.231
2	769584	99.931	0.231
2	771065	100.131	0.231
2	772525	100.333	0.233
2	773965	100.531	0.231
2	775302	100.731	0.231
2	776324	100.931	0.231
2	777881	101.132	0.232
2	779812	101.332	0.232
2	781060	101.531	0.231
2	782496	101.738	0.238
2	784130	101.931	0.231
2	785693	102.131	0.231
2	787129	102.331	0.231
2	788478	102.534	0.234
2	789831	102.733	0.233
2	791461	102.932	0.232
2	792750	103.16	0.26
2	794126	103.331	0.231
2	795846	103.562	0.262
2	797151	103.731	0.231
2	798747	103.932	0.232
2	800242	104.133	0.233
2	801666	104.331	0.231
2	803112	104.531	0.231
2	804566	104.733	0.233
2	805860	104.931	0.231
2	807038	105.131	0.231
2	808934	105.368	0.268
2	810264	105.532	0.232
2	811638	105.734	0.234
2	812682	105.932	0.232
2	814548	106.131	0.231
2	816277	106.332	0.232
2	817714	106.532	0.232
2	819158	106.732	0.232
2	820607	106.933	0.233
2	822078	107.131	0.231
2	823508	107.331	0.231
2	824945	107.531	0.231
2	826394	107.731	0.231
2	827833	107.931	0.231
2	829322	108.132	0.232
2	830756	108.331	0.231
2	832196	108.563	0.263
2	833507	108.731	0.231
2	835072	108.961	0.261
2	836500	109.157	0.257
2	837961	109.332	0.232
2	839479	109.533	0.233
2	840904	109.731	0.231
2	842228	109.932	0.232
2	843403	110.132	0.232
2	845205	110.331	0.231
2	846640	110.532	0.232
2	848035	110.733	0.233
2	849600	110.937	0.237
2	850737	111.133	0.233
2	852154	111.331	0.231
2	854020	111.561	0.261
2	855413	111.731	0.231
2	857002	111.931	0.231
2	858360	112.131	0.231
2	859808	112.333	0.233
2	861423	112.536	0.236
2	862687	112.731	0.231
2	863817	112.931	0.231
2	865698	113.131	0.231
2	867216	113.331	0.231
2	868653	113.532	0.232
2	870072	113.759	0.259
2	871400	113.931	0.231
2	873037	114.131	0.231
2	874474	114.331	0.231
2	875940	114.534	0.234
2	877354	114.733	0.233
2	878795	114.933	0.233
2	880285	115.132	0.232
2	881717	115.331	0.231
2	883199	115.534	0.234
2	884651	115.732	0.232
2	886084	115.932	0.232
2	887576	116.132	0.232
2	888867	116.331	0.231
2	890028	116.533	0.233
2	891854	116.734	0.234
2	893246	116.932	0.232
2	894789	117.138	0.238
2	896377	117.338	0.238
2	897744	117.566	0.266
2	898924	117.731	0.231
2	900351	117.935	0.235
2	901713	118.133	0.233
2	903477	118.331	0.231
2	905035	118.531	0.231
2	906461	118.759	0.259
2	907775	118.931	0.231
2	909416	119.132	0.232
2	910848	119.331	0.231
2	912295	119.531	0.231
2	913732	119.731	0.231
2	915179	119.932	0.232
2	916624	120.138	0.238
2	917913	120.332	0.232
2	919615	120.536	0.236
2	920927	120.732	0.232
2	922054	120.931	0.231
2	923923	121.131	0.231
2	925425	121.331	0.231
2	926863	121.532	0.232
2	928170	121.731	0.231
2	929542	121.959	0.259
2	931052	122.131	0.231
2	932718	122.331	0.231
2	934055	122.533	0.233
2	935415	122.731	0.231
2	936949	122.933	0.233
2	938408	123.131	0.231
2	940004	123.332	0.232
2	941444	123.531	0.231
2	942749	123.731	0.231
2	943761	123.933	0.233
2	945314	124.131	0.231
2	947136	124.422	0.322
2	948140	124.531	0.231
2	950077	124.731	0.231
2	951695	124.931	0.231
2	953231	125.136	0.236
2	954535	125.334	0.234
2	955916	125.534	0.234
2	957427	125.731	0.231
2	958591	125.932	0.232
2	959522	126.134	0.234
2	961486	126.331	0.231
2	963480	126.533	0.233
2	964909	126.731	0.231
2	966342	126.932	0.232
2	967837	127.131	0.231
2	969346	127.338	0.238
2	970712	127.532	0.232
2	972041	127.732	0.232
2	973451	127.931	0.231
2	974959	128.131	0.231
2	976400	128.332	0.232
2	977982	128.532	0.232
2	979431	128.734	0.234
2	980862	128.932	0.232
2	982346	129.131	0.231
2	983661	129.333	0.233
2	984743	129.532	0.232
2	985832	129.731	0.231
2	986927	129.931	0.231
2	988084	130.133	0.233
2	989161	130.331	0.231
2	990133	130.531	0.231
2	991180	130.732	0.232
2	992410	130.931	0.231
2	993658	131.133	0.233
2	994738	131.332	0.232
2	995855	131.534	0.234
2	996934	131.731	0.231
2	998022	131.931	0.231
2	999170	132.132	0.232
2	1000283	132.334	0.234
2	1001354	132.531	0.231
2	1002448	132.731	0.231
2	1003542	132.931	0.231
2	1004696	133.132	0.232
2	1005780	133.331	0.231
2	1006869	133.531	0.231
2	1007978	133.732	0.232
2	1009096	133.936	0.236
2	1010115	134.137	0.237
2	1010854	134.331	0.231
2	1012336	134.531	0.231
2	1013381	134.731	0.231
2	1014172	134.932	0.232
2	1015494	135.131	0.231
2	1016871	135.331	0.231
2	1017991	135.533	0.233
2	1019084	135.731	0.231
2	1020190	135.933	0.233
2	1021372	136.138	0.238
2	1022414	136.331	0.231
2	1023513	136.531	0.231
2	1024603	136.731	0.231
2	1025757	136.939	0.239
2	1026712	137.131	0.231
2	1027536	137.336	0.236
2	1028839	137.531	0.231
2	1030148	137.731	0.231
2	1031247	137.931	0.231
2	1032380	138.131	0.231
2	1033223	138.331	0.231
2	1033947	138.533	0.233
2	1035415	138.731	0.231
2	1036907	138.966	0.266
2	1037800	139.131	0.231
2	1038585	139.331	0.231
2	1039933	139.531	0.231
2	1040799	139.731	0.231
2	1041872	139.931	0.231
2	1043231	140.131	0.231
2	1044423	140.332	0.232
2	1045679	140.56	0.26
2	1046590	140.731	0.231
2	1047521	140.931	0.231
2	1049046	141.159	0.259
2	1050090	141.332	0.232
2	1051334	141.532	0.232
2	1052426	141.732	0.232
2	1053548	141.936	0.236
2	1054669	142.132	0.232
2	1055653	142.334	0.234
2	1056404	142.531	0.231
2	1057703	142.732	0.232
2	1059069	142.931	0.231
2	1060196	143.131	0.231
2	1061303	143.331	0.231
2	1062404	143.532	0.232
2	1063414	143.759	0.259
2	1064451	143.931	0.231
2	1065751	144.133	0.233
2	1066861	144.335	0.235
2	1067926	144.531	0.231
2	1068889	144.731	0.231
2	1069676	144.931	0.231
2	1071196	145.131	0.231
2	1072269	145.333	0.233
2	1073319	145.596	0.296
2	1074420	145.76	0.26
2	1075579	145.931	0.231
2	1076879	146.132	0.232
2	1077964	146.331	0.231
2	1079123	146.542	0.242
2	1080096	146.763	0.263
2	1081123	146.931	0.231
2	1082407	147.133	0.233
2	1083500	147.331	0.231
2	1084589	147.531	0.231
2	1085686	147.731	0.231
2	1086781	147.931	0.231
2	1087925	148.132	0.232
2	1089037	148.333	0.233
2	1090108	148.531	0.231
2	1091200	148.731	0.231
2	1092323	148.933	0.233
2	1093477	149.136	0.236
2	1094465	149.359	0.259
2	1095499	149.532	0.232
2	1096729	149.731	0.231
2	1097832	149.931	0.231
2	1098968	150.131	0.231
2	1100004	150.361	0.261
2	1100919	150.532	0.232
2	1101735	150.731	0.231
2	1103306	150.962	0.262
2	1104585	151.133	0.233
2	1105610	151.361	0.261
2	1106638	151.531	0.231
2	1107790	151.759	0.259
2	1108701	151.931	0.231
2	1109924	152.132	0.232
2	1111187	152.335	0.235
2	1112222	152.532	0.232
2	1112994	152.731	0.231
2	1114392	152.932	0.232
2	1115241	153.131	0.231
2	1116729	153.362	0.262
2	1117758	153.531	0.231
2	1119014	153.733	0.233
2	1120093	153.931	0.231
2	1121227	154.131	0.231
2	1122334	154.331	0.231
2	1123427	154.531	0.231
2	1124440	154.759	0.259
2	1125480	154.931	0.231
2	1126640	155.132	0.232
2	1127419	155.331	0.231
2	1128910	155.531	0.231
2	1130100	155.731	0.231
2	1131251	155.938	0.238
2	1132336	156.131	0.231
2	1133177	156.331	0.231
2	1133896	156.532	0.232
2	1135377	156.732	0.232
2	1136747	156.932	0.232
2	1137772	157.132	0.232
2	1138547	157.423	0.323
2	1139722	157.532	0.232
2	1141201	157.731	0.231
2	1142326	157.934	0.234
2	1143311	158.131	0.231
2	1144098	158.331	0.231
2	1145640	158.532	0.232
2	1146733	158.731	0.231
2	1147831	158.931	0.231
2	1148979	159.131	0.231
2	1150075	159.332	0.232
2	1151173	159.532	0.232
2	1152269	159.732	0.232
2	1153365	159.932	0.232
2	1154380	160.131	0.231
2	1155250	160.39	0.29
2	1156149	160.559	0.259
2	1157532	160.732	0.232
2	1158937	160.931	0.231
2	1160095	161.133	0.233
2	1161180	161.332	0.232
2	1162273	161.531	0.231
2	1163372	161.731	0.231
2	1164469	161.932	0.232
2	1165637	162.136	0.236
2	1166698	162.331	0.231
2	1167793	162.531	0.231
2	1168770	162.732	0.232
2	1169822	162.996	0.296
2	1171027	163.134	0.234
2	1172244	163.331	0.231
2	1173225	163.532	0.232
2	1174250	163.732	0.232
2	1175566	163.934	0.234
2	1176557	164.131	0.231
2	1177345	164.331	0.231
2	1178826	164.531	0.231
2	1179926	164.762	0.262
2	1180975	164.933	0.233
2	1182245	165.132	0.232
2	1183382	165.337	0.237
2	1184453	165.531	0.231
2	1185438	165.731	0.231
2	1186222	165.932	0.232
2	1187774	166.132	0.232
2	1188764	166.331	0.231
2	1189714	166.535	0.235
2	1190873	166.823	0.323
2	1191723	166.939	0.239
2	1193309	167.132	0.232
2	1194540	167.335	0.235
2	1195607	167.531	0.231
2	1196711	167.732	0.232
2	1197739	167.964	0.264
2	1198836	168.135	0.235
2	1200038	168.331	0.231
2	1200926	168.559	0.259
2	1201674	168.76	0.26
2	1203037	168.931	0.231
2	1204489	169.131	0.231
2	1205508	169.359	0.259
2	1206579	169.535	0.235
2	1207812	169.734	0.234
2	1208899	169.933	0.233
2	1210028	170.131	0.231
2	1211120	170.331	0.231
2	1212238	170.532	0.232
2	1213345	170.731	0.231
2	1214444	170.932	0.232
2	1215445	171.131	0.231
2	1216364	171.333	0.233
2	1217532	171.534	0.234
2	1218888	171.731	0.231
2	1220017	171.934	0.234
2	1221077	172.163	0.263
2	1222117	172.333	0.233
2	1223348	172.532	0.232
2	1224442	172.732	0.232
2	1225557	172.936	0.236
2	1226668	173.131	0.231
2	1227764	173.331	0.231
2	1228862	173.531	0.231
2	1229859	173.759	0.259
2	1230914	173.931	0.231
2	1232225	174.134	0.234
2	1233303	174.332	0.232
2	1234383	174.531	0.231
2	1235419	174.76	0.26
2	1236455	174.931	0.231
2	1237732	175.131	0.231
2	1238693	175.331	0.231
2	1239465	175.531	0.231
2	1240211	175.731	0.231
2	1240988	176.022	0.322
2	1241629	176.131	0.231
2	1242530	176.332	0.232
2	1256641	187.131	10.831
2	1256648	187.131	10.631
2	1256658	187.131	10.431
2	1256666	187.131	10.031
2	1256673	187.131	9.631
2	1256680	187.131	9.431
2	1256691	187.131	9.031
2	1256695	187.131	8.831
2	1256709	187.131	8.231
2	1256726	187.131	7.431
2	1256734	187.131	7.231
2	1256747	187.131	6.631
2	1256752	187.131	6.231
2	1256755	187.131	6.031
2	1256760	187.131	5.831
2	1256773	187.131	5.231
2	1256779	187.131	5.031
2	1256784	187.131	4.831
2	1256791	187.131	4.631
2	1256796	187.131	4.431
2	1256804	187.131	3.831
2	1256812	187.131	3.631
2	1256825	187.131	3.231
2	1256835	187.131	2.831
2	1256842	187.131	2.631
2	1256847	187.131	2.431
2	1256863	187.131	1.631
2	1256872	187.131	1.231
2	1256877	187.131	1.031
2	1256887	187.131	0.631
2	1256896	187.131	0.231
2	1257017	187.132	9.832
2	1257029	187.132	8.632
2	1257044	187.132	6.832
2	1257052	187.132	6.432
2	1257062	187.132	5.632
2	1257075	187.132	4.232
2	1257082	187.132	3.432
2	1257094	187.132	2.032
2	1257102	187.132	1.432
2	1257108	187.132	0.832
2	1257401	187.133	9.233
2	1257420	187.133	8.433
2	1257490	187.133	5.433
2	1257529	187.133	4.033
2	1257550	187.133	3.033
2	1257575	187.133	2.233
2	1257616	187.133	0.433
2	1258140	187.135	8.035
2	1258276	187.136	7.036
2	1258566	187.137	10.237
2	1258618	187.137	7.837
2	1259512	187.143	7.643
2	1259565	187.162	1.862
2	1267524	187.543	0.443
2	1267529	187.543	0.243
2	1268151	187.732	0.232
2	1268602	187.931	0.231
2	1269115	188.131	0.231
2	1269614	188.335	0.235
2	1270050	188.531	0.231
2	1270565	188.738	0.238
2	1270981	188.931	0.231
2	1271495	189.131	0.231
2	1271957	189.331	0.231
3	6532	10.134	0.234
3	8321	10.333	0.233
3	10136	10.533	0.233
3	11975	10.735	0.235
3	13605	10.933	0.233
3	15144	11.133	0.233
3	17434	11.436	0.336
3	19036	11.533	0.233
3	20979	11.733	0.233
3	22770	11.933	0.233
3	24605	12.133	0.233
3	26385	12.333	0.233
3	28201	12.536	0.236
3	29850	12.734	0.234
3	31369	12.938	0.238
3	33061	13.133	0.233
3	34986	13.337	0.237
3	36778	13.533	0.233
3	39034	13.737	0.237
3	40873	13.939	0.239
3	42359	14.133	0.233
3	43529	14.334	0.234
3	45894	14.644	0.344
3	47583	14.734	0.234
3	49686	14.933	0.233
3	51212	15.133	0.233
3	53822	15.439	0.339
3	55157	15.536	0.236
3	57104	15.734	0.234
3	58902	15.935	0.235
3	60744	16.136	0.236
3	62505	16.333	0.233
3	64289	16.533	0.233
3	65836	16.734	0.234
3	67228	16.933	0.233
3	69913	17.239	0.339
3	71238	17.333	0.233
3	72779	17.535	0.235
3	74413	17.736	0.236
3	76713	17.936	0.236
3	78261	18.136	0.236
3	79996	18.333	0.233
3	82396	18.533	0.233
3	84192	18.733	0.233
3	85856	18.933	0.233
3	87446	19.135	0.235
3	89036	19.333	0.233
3	91032	19.536	0.236
3	93089	19.733	0.233
3	94677	19.933	0.233
3	96407	20.133	0.233
3	98259	20.334	0.234
3	100487	20.535	0.235
3	102333	20.734	0.234
3	104132	20.936	0.236
3	105741	21.142	0.242
3	107034	21.334	0.234
3	108815	21.533	0.233
3	110904	21.734	0.234
3	112388	21.933	0.233
3	114989	22.134	0.234
3	116661	22.368	0.268
3	118272	22.535	0.235
3	120409	22.737	0.237
3	122580	23.036	0.336
3	123883	23.134	0.234
3	125797	23.333	0.233
3	127586	23.533	0.233
3	129294	23.737	0.237
3	130721	23.933	0.233
3	132615	24.134	0.234
3	134817	24.335	0.235
3	136602	24.534	0.234
3	138390	24.734	0.234
3	140100	24.938	0.238
3	141436	25.133	0.233
3	142841	25.335	0.235
3	145119	25.534	0.234
3	147507	25.734	0.234
3	149173	25.933	0.233
3	151338	26.236	0.336
3	152785	26.334	0.234
3	154892	26.641	0.341
3	155810	26.836	0.336
3	157927	26.999	0.299
3	159773	27.134	0.234
3	161522	27.333	0.233
3	163357	27.533	0.233
3	165927	27.837	0.337
3	167109	27.934	0.234
3	169011	28.134	0.234
3	170729	28.334	0.234
3	171905	28.533	0.233
3	173442	28.735	0.235
3	175185	28.935	0.235
3	177585	29.133	0.233
3	179083	29.334	0.234
3	181703	29.533	0.233
3	183655	29.733	0.233
3	185512	29.938	0.238
3	187617	30.236	0.336
3	188678	30.334	0.234
3	190027	30.534	0.234
3	191476	30.735	0.235
3	192837	30.934	0.234
3	194691	31.134	0.234
3	198063	31.468	0.368
3	199109	31.533	0.233
3	201361	31.733	0.233
3	203106	31.934	0.234
3	205436	32.14	0.24
3	207146	32.335	0.235
3	208631	32.535	0.235
3	210444	32.733	0.233
3	212427	32.935	0.235
3	213893	33.14	0.24
3	215354	33.334	0.234
3	217153	33.533	0.233
3	218826	33.733	0.233
3	221581	33.934	0.234
3	223565	34.133	0.233
3	225232	34.333	0.233
3	226840	34.535	0.235
3	228398	34.734	0.234
3	230059	34.937	0.237
3	232058	35.134	0.234
3	233806	35.441	0.341
3	235667	35.639	0.339
3	237899	35.817	0.317
3	239482	35.935	0.235
3	241806	36.137	0.237
3	243571	36.333	0.233
3	245365	36.534	0.234
3	247144	36.734	0.234
3	248938	36.935	0.235
3	250643	37.134	0.234
3	252104	37.333	0.233
3	254340	37.534	0.234
3	255883	37.734	0.234
3	257598	37.935	0.235
3	259588	38.138	0.238
3	260922	38.333	0.233
3	262728	38.533	0.233
3	264616	38.735	0.235
3	266113	38.934	0.234
3	268902	39.237	0.337
3	270388	39.333	0.233
3	272455	39.534	0.234
3	274138	39.735	0.235
3	276298	40.036	0.336
3	277786	40.137	0.237
3	279671	40.333	0.233
3	281497	40.533	0.233
3	283668	40.836	0.336
3	284855	40.934	0.234
3	286511	41.135	0.235
3	288002	41.336	0.236
3	289601	41.535	0.235
3	291283	41.735	0.235
3	294103	41.936	0.236
3	295881	42.133	0.233
3	297666	42.335	0.235
3	299346	42.535	0.235
3	300670	42.842	0.342
3	301892	42.934	0.234
3	303978	43.135	0.235
3	306701	43.334	0.234
3	308170	43.533	0.233
3	309791	43.734	0.234
3	311346	43.935	0.235
3	312565	44.134	0.234
3	314565	44.333	0.233
3	317318	44.534	0.234
3	319471	44.733	0.233
3	321138	44.933	0.233
3	322667	45.134	0.234
3	324509	45.334	0.234
3	326733	45.533	0.233
3	328579	45.734	0.234
3	330224	45.934	0.234
3	331783	46.137	0.237
3	333587	46.334	0.234
3	335791	46.535	0.235
3	337624	46.737	0.237
3	339259	46.934	0.234
3	341012	47.133	0.233
3	343006	47.334	0.234
3	344676	47.534	0.234
3	346380	47.734	0.234
3	348260	47.934	0.234
3	350075	48.134	0.234
3	351995	48.334	0.234
3	353772	48.533	0.233
3	355329	48.733	0.233
3	356488	48.934	0.234
3	358824	49.136	0.236
3	361362	49.437	0.337
3	362659	49.534	0.234
3	364590	49.734	0.234
3	366380	49.934	0.234
3	368139	50.139	0.239
3	369895	50.337	0.237
3	371703	50.533	0.233
3	373462	50.734	0.234
3	375453	50.934	0.234
3	377274	51.133	0.233
3	379065	51.333	0.233
3	381214	51.639	0.339
3	382494	51.733	0.233
3	384641	51.97	0.27
3	386636	52.239	0.339
3	387897	52.333	0.233
3	389835	52.533	0.233
3	391629	52.733	0.233
3	393276	52.934	0.234
3	395084	53.236	0.336
3	396517	53.336	0.236
3	398857	53.534	0.234
3	400538	53.735	0.235
3	402303	53.933	0.233
3	404145	54.134	0.234
3	405622	54.334	0.234
3	407111	54.534	0.234
3	408433	54.733	0.233
3	409869	54.935	0.235
3	411336	55.135	0.235
3	413188	55.334	0.234
3	416583	55.534	0.234
3	418471	55.839	0.339
3	419611	56.043	0.343
3	420555	56.248	0.348
3	422286	56.337	0.237
3	424913	56.533	0.233
3	426551	56.734	0.234
3	428739	56.933	0.233
3	431451	57.133	0.233
3	433251	57.333	0.233
3	435058	57.535	0.235
3	436514	57.733	0.233
3	438353	57.933	0.233
3	440633	58.137	0.237
3	442264	58.334	0.234
3	443735	58.534	0.234
3	445834	58.733	0.233
3	447501	58.934	0.234
3	449166	59.134	0.234
3	450990	59.333	0.233
3	453565	59.636	0.336
3	454862	59.734	0.234
3	456812	59.936	0.236
3	458621	60.135	0.235
3	460412	60.334	0.234
3	462283	60.538	0.238
3	464184	60.836	0.336
3	465589	60.936	0.236
3	467571	61.135	0.235
3	469050	61.334	0.234
3	470880	61.535	0.235
3	473073	61.734	0.234
3	474857	61.934	0.234
3	476577	62.133	0.233
3	478094	62.441	0.341
3	479164	62.639	0.339
3	481000	62.805	0.305
3	483510	62.98	0.28
3	485599	63.134	0.234
3	486982	63.336	0.236
3	488137	63.535	0.235
3	489733	63.734	0.234
3	491467	63.936	0.236
3	493270	64.133	0.233
3	495181	64.335	0.235
3	497466	64.536	0.236
3	498930	64.734	0.234
3	501546	64.939	0.239
3	503330	65.136	0.236
3	505429	65.437	0.337
3	507038	65.534	0.234
3	508713	65.736	0.236
3	509667	65.933	0.233
3	511136	66.135	0.235
3	513351	66.335	0.235
3	516209	66.534	0.234
3	518061	66.736	0.236
3	520104	66.933	0.233
3	521662	67.134	0.234
3	523492	67.334	0.234
3	526077	67.639	0.339
3	527351	67.734	0.234
3	529174	67.936	0.236
3	531331	68.237	0.337
3	532643	68.335	0.235
3	534733	68.64	0.34
3	535923	68.733	0.233
3	537527	68.933	0.233
3	538968	69.134	0.234
3	540495	69.333	0.233
3	543628	69.639	0.339
3	545320	69.733	0.233
3	547407	69.934	0.234
3	549249	70.134	0.234
3	551023	70.334	0.234
3	552609	70.536	0.236
3	554336	70.733	0.233
3	556481	70.935	0.235
3	558657	71.237	0.337
3	559955	71.333	0.233
3	562248	71.638	0.338
3	563534	71.733	0.233
3	565468	71.933	0.233
3	567413	72.239	0.339
3	568503	72.345	0.245
3	569562	72.533	0.233
3	571149	72.734	0.234
3	572262	72.933	0.233
3	573451	73.136	0.236
3	574557	73.333	0.233
3	575580	73.536	0.236
3	579059	73.869	0.369
3	580188	73.933	0.233
3	581866	74.137	0.237
3	583211	74.339	0.239
3	584290	74.536	0.236
3	585979	74.734	0.234
3	587530	74.942	0.242
3	588963	75.135	0.235
3	590433	75.334	0.234
3	591976	75.668	0.368
3	593059	75.734	0.234
3	594763	75.935	0.235
3	596470	76.136	0.236
3	597914	76.336	0.236
3	599212	76.534	0.234
3	600592	76.734	0.234
3	602170	76.934	0.234
3	603773	77.137	0.237
3	605047	77.333	0.233
3	606695	77.64	0.34
3	607881	77.734	0.234
3	609538	77.933	0.233
3	611244	78.239	0.339
3	612337	78.334	0.234
3	613797	78.534	0.234
3	615223	78.733	0.233
3	616689	78.933	0.233
3	618117	79.135	0.235
3	619754	79.334	0.234
3	621408	79.639	0.339
3	622493	79.733	0.233
3	624167	79.94	0.24
3	625778	80.239	0.339
3	627158	80.44	0.34
3	628237	80.533	0.233
3	629950	80.734	0.234
3	631411	80.935	0.235
3	632873	81.133	0.233
3	634322	81.333	0.233
3	635835	81.539	0.239
3	637209	81.735	0.235
3	638659	81.936	0.236
3	640124	82.133	0.233
3	641562	82.334	0.234
3	643083	82.539	0.239
3	644453	82.735	0.235
3	645772	82.934	0.234
3	647194	83.136	0.236
3	649047	83.44	0.34
3	650124	83.533	0.233
3	651726	83.734	0.234
3	653028	83.933	0.233
3	654436	84.142	0.242
3	655649	84.334	0.234
3	657546	84.539	0.239
3	659020	84.734	0.234
3	660472	84.934	0.234
3	662176	85.239	0.339
3	663129	85.334	0.234
3	664445	85.535	0.235
3	665974	85.734	0.234
3	667851	85.935	0.235
3	669214	86.134	0.234
3	670635	86.334	0.234
3	672263	86.537	0.237
3	673675	86.735	0.235
3	675098	86.934	0.234
3	676455	87.133	0.233
3	677900	87.333	0.233
3	679467	87.533	0.233
3	680914	87.734	0.234
3	682409	87.938	0.238
3	683853	88.134	0.234
3	685281	88.333	0.233
3	686730	88.534	0.234
3	688156	88.733	0.233
3	689605	88.935	0.235
3	691108	89.136	0.236
3	692526	89.333	0.233
3	693964	89.533	0.233
3	695295	89.735	0.235
3	696663	89.935	0.235
3	698352	90.134	0.234
3	699795	90.335	0.235
3	701320	90.584	0.284
3	702504	90.74	0.24
3	703918	90.934	0.234
3	705474	91.133	0.233
3	707124	91.334	0.234
3	708569	91.534	0.234
3	709997	91.733	0.233
3	711447	91.933	0.233
3	712926	92.133	0.233
3	714387	92.335	0.235
3	715687	92.534	0.234
3	717133	92.736	0.236
3	718710	92.934	0.234
3	720201	93.24	0.34
3	721436	93.413	0.313
3	722274	93.536	0.236
3	724273	93.733	0.233
3	725909	93.934	0.234
3	727342	94.137	0.237
3	728920	94.333	0.233
3	730635	94.641	0.341
3	731723	94.735	0.235
3	733281	94.933	0.233
3	734774	95.133	0.233
3	736229	95.334	0.234
3	737677	95.533	0.233
3	739178	95.736	0.236
3	740607	95.935	0.235
3	742086	96.134	0.234
3	743535	96.335	0.235
3	744957	96.533	0.233
3	746416	96.735	0.235
3	747855	96.935	0.235
3	749329	97.134	0.234
3	750769	97.333	0.233
3	752212	97.534	0.234
3	753641	97.733	0.233
3	755088	97.934	0.234
3	756575	98.134	0.234
3	758006	98.333	0.233
3	759681	98.645	0.345
3	760784	98.737	0.237
3	762232	98.936	0.236
3	763624	99.133	0.233
3	765294	99.334	0.234
3	766712	99.533	0.233
3	768153	99.733	0.233
3	769605	99.933	0.233
3	771103	100.135	0.235
3	772527	100.333	0.233
3	774039	100.538	0.238
3	775321	100.733	0.233
3	776622	100.937	0.237
3	777904	101.134	0.234
3	779890	101.336	0.236
3	781095	101.535	0.235
3	782201	101.735	0.235
3	784205	101.935	0.235
3	785751	102.137	0.237
3	787157	102.334	0.234
3	788486	102.536	0.236
3	789832	102.733	0.233
3	791490	102.935	0.235
3	792970	103.239	0.339
3	794148	103.333	0.233
3	796092	103.639	0.339
3	797212	103.737	0.237
3	798760	103.934	0.234
3	800354	104.142	0.242
3	801717	104.336	0.236
3	803131	104.533	0.233
3	804570	104.733	0.233
3	805884	104.934	0.234
3	807313	105.135	0.235
3	809169	105.44	0.34
3	810292	105.535	0.235
3	811675	105.741	0.241
3	812893	105.98	0.28
3	814570	106.134	0.234
3	816296	106.334	0.234
3	817725	106.533	0.233
3	819181	106.735	0.235
3	820608	106.933	0.233
3	822111	107.136	0.236
3	823573	107.338	0.238
3	824991	107.536	0.236
3	826423	107.735	0.235
3	827857	107.934	0.234
3	829333	108.133	0.233
3	830822	108.337	0.237
3	832442	108.64	0.34
3	833586	108.738	0.238
3	835370	109.039	0.339
3	836546	109.159	0.259
3	837973	109.333	0.233
3	839499	109.535	0.235
3	840992	109.738	0.238
3	842245	109.934	0.234
3	843424	110.134	0.234
3	845267	110.334	0.234
3	846664	110.535	0.235
3	848045	110.734	0.234
3	849553	110.933	0.233
3	850742	111.133	0.233
3	852179	111.334	0.234
3	854357	111.642	0.342
3	855446	111.735	0.235
3	857017	111.933	0.233
3	858390	112.136	0.236
3	859811	112.333	0.233
3	861411	112.535	0.235
3	862788	112.739	0.239
3	864083	112.934	0.234
3	865786	113.138	0.238
3	867242	113.334	0.234
3	868669	113.534	0.234
3	870344	113.84	0.34
3	871428	113.934	0.234
3	873042	114.133	0.233
3	874652	114.368	0.268
3	875949	114.535	0.235
3	877355	114.733	0.233
3	878808	114.934	0.234
3	880295	115.133	0.233
3	881733	115.333	0.233
3	883201	115.534	0.234
3	884679	115.734	0.234
3	886197	115.942	0.242
3	887596	116.135	0.235
3	888996	116.344	0.244
3	890041	116.534	0.234
3	891932	116.739	0.239
3	893257	116.933	0.233
3	894728	117.133	0.233
3	896329	117.334	0.234
3	897972	117.639	0.339
3	899058	117.753	0.253
3	900341	117.934	0.234
3	901731	118.135	0.235
3	903497	118.334	0.234
3	905097	118.537	0.237
3	906714	118.839	0.339
3	907796	118.934	0.234
3	909451	119.135	0.235
3	910928	119.338	0.238
3	912405	119.539	0.239
3	913767	119.736	0.236
3	915188	119.933	0.233
3	916550	120.133	0.233
3	917942	120.335	0.235
3	919598	120.534	0.234
3	920980	120.739	0.239
3	922094	120.936	0.236
3	923961	121.134	0.234
3	925446	121.334	0.234
3	926945	121.539	0.239
3	928192	121.733	0.233
3	929899	122.04	0.34
3	931081	122.134	0.234
3	932741	122.334	0.234
3	934057	122.533	0.233
3	935456	122.736	0.236
3	936953	122.933	0.233
[...]
9	78632	18.268	0.368
9	80426	18.389	0.289
9	82615	18.571	0.271
9	84414	18.771	0.271
9	86011	18.969	0.269
9	87689	19.189	0.289
9	89385	19.391	0.291
9	91472	19.591	0.291
9	93270	19.771	0.271
9	94863	19.969	0.269
9	96632	20.17	0.27
9	98531	20.369	0.269
9	100710	20.569	0.269
9	102621	20.779	0.279
9	104327	20.97	0.27
9	105913	21.19	0.29
9	107503	21.465	0.365
9	109459	21.62	0.32
9	111194	21.789	0.289
9	113154	21.991	0.291
9	115220	22.169	0.269
9	116677	22.37	0.27
9	118877	22.621	0.321
9	120594	22.769	0.269
9	122209	22.969	0.269
9	124109	23.169	0.269
9	126048	23.374	0.274
9	127829	23.574	0.274
9	129540	23.789	0.289
9	131023	23.99	0.29
9	133035	24.19	0.29
9	135020	24.37	0.27
9	136804	24.569	0.269
9	138679	24.779	0.279
9	140248	24.969	0.269
9	141704	25.188	0.288
9	143085	25.389	0.289
9	145614	25.589	0.289
9	147711	25.769	0.269
9	149351	25.97	0.27
9	150929	26.171	0.271
9	153034	26.372	0.272
9	154650	26.574	0.274
9	155618	26.771	0.271
9	157617	26.971	0.271
9	160134	27.17	0.27
9	161747	27.37	0.27
9	163641	27.571	0.271
9	165605	27.77	0.27
9	167305	27.97	0.27
9	169182	28.169	0.269
9	171003	28.388	0.288
9	172195	28.59	0.29
9	173744	28.788	0.288
9	176052	28.993	0.293
9	177853	29.172	0.272
9	179494	29.369	0.269
9	181982	29.573	0.273
9	183867	29.769	0.269
9	185668	29.971	0.271
9	187311	30.172	0.272
9	188971	30.389	0.289
9	190287	30.588	0.288
9	191776	30.789	0.289
9	193359	30.989	0.289
9	195502	31.197	0.297
9	197811	31.44	0.34
9	199751	31.572	0.272
9	201597	31.77	0.27
9	203309	31.969	0.269
9	205595	32.174	0.274
9	207366	32.371	0.271
9	208887	32.577	0.277
9	210732	32.771	0.271
9	212642	32.992	0.292
9	214114	33.189	0.289
9	215697	33.388	0.288
9	217333	33.569	0.269
9	219605	33.769	0.269
9	221958	33.971	0.271
9	223783	34.169	0.269
9	225408	34.371	0.271
9	227286	34.62	0.32
9	228752	34.864	0.364
9	230448	34.99	0.29
9	232306	35.188	0.288
9	233588	35.389	0.289
9	235336	35.589	0.289
9	237185	35.77	0.27
9	239996	35.971	0.271
9	241997	36.17	0.27
9	243788	36.37	0.27
9	245573	36.57	0.27
9	247352	36.769	0.269
9	249140	36.969	0.269
9	250813	37.169	0.269
9	252528	37.37	0.27
9	254574	37.573	0.273
9	255991	37.769	0.269
9	257795	37.972	0.272
9	259895	38.264	0.364
9	261375	38.42	0.32
9	263064	38.592	0.292
9	264950	38.792	0.292
9	266734	38.99	0.29
9	268587	39.169	0.269
9	270647	39.369	0.269
9	272662	39.569	0.269
9	274302	39.771	0.271
9	275842	39.97	0.27
9	277992	40.17	0.27
9	279900	40.372	0.272
9	281720	40.57	0.27
9	283370	40.773	0.273
9	285145	40.988	0.288
9	286788	41.189	0.289
9	288459	41.464	0.364
9	290063	41.623	0.323
9	292057	41.788	0.288
9	294387	41.97	0.27
9	296045	42.171	0.271
9	297915	42.375	0.275
9	299618	42.59	0.29
9	300571	42.789	0.289
9	302229	42.988	0.288
9	304886	43.19	0.29
9	306913	43.369	0.269
9	308395	43.569	0.269
9	310106	43.789	0.289
9	311622	43.988	0.288
9	313256	44.189	0.289
9	315726	44.432	0.332
9	317736	44.58	0.28
9	319736	44.776	0.276
9	321351	44.969	0.269
9	322884	45.171	0.271
9	324780	45.371	0.271
9	326969	45.569	0.269
9	328783	45.769	0.269
9	330437	45.97	0.27
9	331970	46.17	0.27
9	333871	46.371	0.271
9	336002	46.569	0.269
9	337805	46.771	0.271
9	339419	46.969	0.269
9	341196	47.171	0.271
9	343209	47.369	0.269
9	344841	47.57	0.27
9	346559	47.77	0.27
9	348402	47.969	0.269
9	350283	48.169	0.269
9	352213	48.371	0.271
9	353990	48.57	0.27
9	355704	48.867	0.367
9	357259	49.026	0.326
9	359211	49.189	0.289
9	361043	49.37	0.27
9	362890	49.569	0.269
9	364810	49.77	0.27
9	366621	49.974	0.274
9	368246	50.17	0.27
9	370097	50.37	0.27
9	371896	50.57	0.27
9	373637	50.77	0.27
9	375671	50.97	0.27
9	377494	51.169	0.269
9	379273	51.369	0.269
9	380880	51.569	0.269
9	382739	51.771	0.271
9	384648	51.971	0.271
9	386296	52.169	0.269
9	388143	52.369	0.269
9	390053	52.569	0.269
9	391840	52.769	0.269
9	393642	52.991	0.291
9	394836	53.169	0.269
9	396804	53.37	0.27
9	399079	53.57	0.27
9	400680	53.769	0.269
9	402576	53.976	0.276
9	404365	54.17	0.27
9	405836	54.37	0.27
9	407300	54.569	0.269
9	408773	54.769	0.269
9	410607	55.068	0.368
9	411686	55.267	0.367
9	414129	55.393	0.293
9	416959	55.57	0.27
9	418375	55.788	0.288
9	419399	55.99	0.29
9	420453	56.189	0.289
9	422927	56.39	0.29
9	425262	56.589	0.289
9	426841	56.79	0.29
9	429225	56.974	0.274
9	431615	57.17	0.27
9	433471	57.369	0.269
9	435340	57.589	0.289
9	436884	57.802	0.302
9	438766	57.989	0.289
9	440809	58.169	0.269
9	442441	58.372	0.272
9	444153	58.569	0.269
9	446057	58.778	0.278
9	447722	58.969	0.269
9	449379	59.17	0.27
9	451279	59.371	0.271
9	453249	59.57	0.27
9	455090	59.769	0.269
9	457008	59.971	0.271
9	458819	60.169	0.269
9	460622	60.37	0.27
9	462460	60.571	0.271
9	463910	60.77	0.27
9	465830	60.972	0.272
9	467773	61.169	0.269
9	469252	61.37	0.27
9	471155	61.571	0.271
9	473295	61.769	0.269
9	475075	61.969	0.269
9	476870	62.191	0.291
9	477981	62.388	0.288
9	478987	62.588	0.288
9	480802	62.791	0.291
9	483744	62.991	0.291
9	485896	63.189	0.289
9	487248	63.392	0.292
9	488355	63.589	0.289
9	490103	63.791	0.291
9	492036	63.99	0.29
9	493956	64.188	0.288
9	496234	64.425	0.325
9	497712	64.571	0.271
9	499102	64.771	0.271
9	501810	64.969	0.269
9	503468	65.17	0.27
9	505063	65.369	0.269
9	507521	65.589	0.289
9	509002	65.869	0.369
9	510125	66.067	0.367
9	512162	66.265	0.365
9	514408	66.389	0.289
9	516438	66.571	0.271
9	518311	66.769	0.269
9	520352	66.972	0.272
9	521871	67.17	0.27
9	523766	67.37	0.27
9	525729	67.569	0.269
9	527592	67.77	0.27
9	529344	67.97	0.27
9	530917	68.169	0.269
9	532844	68.373	0.273
9	534573	68.588	0.288
9	536231	68.788	0.288
9	537871	68.99	0.29
9	539223	69.188	0.288
9	540996	69.391	0.291
9	543245	69.589	0.289
9	545589	69.769	0.269
9	547621	69.969	0.269
9	549455	70.169	0.269
9	551235	70.37	0.27
9	552731	70.571	0.271
9	554544	70.77	0.27
9	556699	70.971	0.271
9	558357	71.173	0.273
9	560197	71.369	0.269
9	561925	71.57	0.27
9	563778	71.769	0.269
9	565688	71.97	0.27
9	567272	72.191	0.291
9	568822	72.464	0.364
9	570180	72.623	0.323
9	571396	72.788	0.288
9	572514	72.988	0.288
9	573698	73.19	0.29
9	574814	73.389	0.289
9	576642	73.664	0.364
9	578905	73.819	0.319
9	580500	73.99	0.29
9	582093	74.189	0.289
9	583495	74.466	0.366
9	584870	74.666	0.366
9	586332	74.792	0.292
9	587679	74.989	0.289
9	589282	75.192	0.292
9	590761	75.464	0.364
9	591858	75.623	0.323
9	593568	75.864	0.364
9	595240	76.021	0.321
9	596726	76.189	0.289
9	598169	76.389	0.289
9	599460	76.588	0.288
9	600877	76.788	0.288
9	602535	76.993	0.293
9	604011	77.189	0.289
9	605307	77.389	0.289
9	606520	77.589	0.289
9	608252	77.788	0.288
9	609823	77.989	0.289
9	611112	78.191	0.291
9	612632	78.389	0.289
9	613994	78.589	0.289
9	615556	78.792	0.292
9	617071	79.065	0.365
9	618547	79.22	0.32
9	620016	79.388	0.288
9	621269	79.589	0.289
9	622804	79.792	0.292
9	624348	79.988	0.288
9	625651	80.191	0.291
9	626768	80.389	0.289
9	628574	80.589	0.289
9	630228	80.79	0.29
9	631698	80.995	0.295
9	633146	81.188	0.288
9	634595	81.389	0.289
9	636040	81.589	0.289
9	637542	81.803	0.303
9	638919	81.989	0.289
9	640406	82.189	0.289
9	641847	82.391	0.291
9	643322	82.595	0.295
9	644723	82.789	0.289
9	646149	83.064	0.364
9	647607	83.222	0.322
9	648921	83.394	0.294
9	650418	83.588	0.288
9	651978	83.788	0.288
9	653280	83.988	0.288
9	654623	84.189	0.289
9	656210	84.389	0.289
9	657854	84.589	0.289
9	659310	84.791	0.291
9	660758	84.992	0.292
9	662013	85.188	0.288
9	663424	85.391	0.291
9	664796	85.664	0.364
9	666554	85.823	0.323
9	668131	85.991	0.291
9	669416	86.192	0.292
9	670961	86.39	0.29
9	672500	86.589	0.289
9	673923	86.788	0.288
9	675366	86.989	0.289
9	676658	87.189	0.289
9	678199	87.388	0.288
9	679733	87.588	0.288
9	681177	87.788	0.288
9	682633	87.989	0.289
9	684120	88.189	0.289
9	685571	88.39	0.29
9	687003	88.591	0.291
9	688443	88.79	0.29
9	689873	88.99	0.29
9	691351	89.188	0.288
9	692815	89.391	0.291
9	694251	89.591	0.291
9	695630	89.865	0.365
9	697133	90.02	0.32
9	698622	90.189	0.289
9	700049	90.388	0.288
9	701326	90.588	0.288
9	702701	90.789	0.289
9	704402	91.064	0.364
9	705907	91.22	0.32
9	707441	91.396	0.296
9	708837	91.589	0.289
9	710286	91.789	0.289
9	711721	91.989	0.289
9	713207	92.189	0.289
9	714649	92.389	0.289
9	715885	92.589	0.289
9	717423	92.788	0.288
9	718978	92.991	0.291
9	720118	93.19	0.29
9	721334	93.394	0.294
9	722893	93.592	0.292
9	724763	93.789	0.289
9	726327	94.068	0.368
9	727775	94.226	0.326
9	729250	94.39	0.29
9	730485	94.59	0.29
9	732007	94.788	0.288
9	733560	94.988	0.288
9	735056	95.189	0.289
9	736504	95.389	0.289
9	737970	95.589	0.289
9	739438	95.79	0.29
9	740862	95.988	0.288
9	742362	96.192	0.292
9	743799	96.389	0.289
9	745234	96.588	0.288
9	746690	96.79	0.29
9	748371	97.065	0.365
9	749600	97.189	0.289
9	751046	97.389	0.289
9	752478	97.59	0.29
9	753917	97.789	0.289
9	755363	97.989	0.289
9	756844	98.189	0.289
9	758289	98.389	0.289
9	759526	98.589	0.289
9	761052	98.788	0.288
9	762632	99.068	0.368
9	764068	99.221	0.321
9	765554	99.388	0.288
9	766996	99.589	0.289
9	768438	99.79	0.29
9	769886	99.989	0.289
9	771564	100.264	0.364
9	772818	100.392	0.292
9	774272	100.59	0.29
9	775587	100.789	0.289
9	777087	101.067	0.367
9	778669	101.224	0.324
9	780203	101.397	0.297
9	781329	101.665	0.365
9	782927	101.826	0.326
9	784483	101.988	0.288
9	785993	102.192	0.292
9	787422	102.389	0.289
9	788814	102.665	0.365
9	790250	102.82	0.32
9	791761	102.992	0.292
9	792841	103.189	0.289
9	794489	103.389	0.289
9	795940	103.588	0.288
9	797467	103.788	0.288
9	799036	103.989	0.289
9	800539	104.191	0.291
9	801963	104.389	0.289
9	803408	104.589	0.289
9	804844	104.789	0.289
9	806298	105.068	0.368
9	807734	105.222	0.322
9	809036	105.389	0.289
9	810636	105.597	0.297
9	811828	105.792	0.292
9	812907	105.988	0.288
9	815135	106.192	0.292
9	816585	106.394	0.294
9	818000	106.589	0.289
9	819453	106.79	0.29
9	820886	106.989	0.289
9	822374	107.189	0.289
9	823803	107.389	0.289
9	825241	107.589	0.289
9	826684	107.789	0.289
9	828375	108.064	0.364
9	829599	108.188	0.288
9	831061	108.39	0.29
9	832288	108.589	0.289
9	833827	108.79	0.29
9	835180	108.988	0.288
9	836708	109.188	0.288
9	838335	109.39	0.29
9	839769	109.59	0.29
9	841209	109.79	0.29
9	842638	110.065	0.365
9	844116	110.227	0.327
9	845575	110.389	0.289
9	847024	110.666	0.366
9	848498	110.822	0.322
9	849823	110.989	0.289
9	851155	111.189	0.289
9	852708	111.389	0.289
9	854203	111.589	0.289
9	855743	111.792	0.292
9	857285	111.988	0.288
9	858574	112.188	0.288
9	860125	112.389	0.289
9	861668	112.59	0.29
9	862976	112.789	0.289
9	864368	112.988	0.288
9	866080	113.19	0.29
9	867510	113.389	0.289
9	868945	113.589	0.289
9	870184	113.788	0.288
9	871740	113.994	0.294
9	873344	114.192	0.292
9	874770	114.389	0.289
9	876216	114.591	0.291
9	877634	114.788	0.288
9	879068	114.988	0.288
9	880564	115.189	0.289
9	882018	115.389	0.289
9	883471	115.588	0.288
9	884952	115.79	0.29
9	886378	115.989	0.289
9	887852	116.188	0.288
9	889146	116.389	0.289
9	890580	116.589	0.289
9	892213	116.789	0.289
9	893463	116.991	0.291
9	895061	117.19	0.29
9	896594	117.389	0.289
9	897838	117.591	0.291
9	899372	117.866	0.366
9	900853	118.068	0.368
9	902440	118.257	0.357
9	903892	118.389	0.289
9	905333	118.589	0.289
9	906581	118.789	0.289
9	908096	118.988	0.288
9	909711	119.189	0.289
9	911151	119.39	0.29
9	912594	119.589	0.289
9	914031	119.789	0.289
9	915473	119.99	0.29
9	916913	120.267	0.367
9	918354	120.419	0.319
9	919878	120.589	0.289
9	921152	120.792	0.292
9	922626	120.989	0.289
9	924277	121.189	0.289
9	925729	121.39	0.29
9	927147	121.588	0.288
9	928456	121.789	0.289
9	929674	121.989	0.289
9	931454	122.189	0.289
9	933008	122.388	0.288
9	934401	122.664	0.364
9	935885	122.822	0.322
9	937157	122.989	0.289
9	938753	123.189	0.289
9	940284	123.388	0.288
9	941740	123.59	0.29
9	943026	123.789	0.289
9	944523	124.066	0.366
9	945987	124.264	0.364
9	947268	124.469	0.369
9	948992	124.665	0.365
9	950534	124.79	0.29
9	951989	124.988	0.288
9	953493	125.189	0.289
9	954866	125.464	0.364
9	956368	125.621	0.321
9	957707	125.788	0.288
9	959010	126.065	0.365
9	960322	126.265	0.365
9	962067	126.389	0.289
9	963764	126.589	0.289
9	965215	126.791	0.291
9	966629	126.988	0.288
9	968124	127.189	0.289
9	969570	127.39	0.29
9	970999	127.588	0.288
9	972260	127.792	0.292
9	973794	127.989	0.289
9	975188	128.193	0.293
9	976749	128.391	0.291
9	978271	128.59	0.29
9	979725	128.792	0.292
9	981159	128.989	0.289
9	982619	129.188	0.288
9	983847	129.389	0.289
9	984946	129.593	0.293
9	986069	129.798	0.298
9	987130	129.99	0.29
9	988305	130.197	0.297
9	989392	130.396	0.296
9	990324	130.588	0.288
9	991406	130.789	0.289
9	992697	130.989	0.289
9	993844	131.188	0.288
9	994937	131.389	0.289
9	996025	131.588	0.288
9	997128	131.789	0.289
9	998220	131.989	0.289
9	999357	132.188	0.288
9	1000460	132.389	0.289
9	1001559	132.589	0.289
9	1002660	132.791	0.291
9	1003753	132.991	0.291
9	1004896	133.193	0.293
9	1005983	133.389	0.289
9	1007071	133.588	0.288
9	1008175	133.79	0.29
9	1009257	133.988	0.288
9	1010261	134.191	0.291
9	1011329	134.39	0.29
9	1012617	134.59	0.29
9	1013567	134.789	0.289
9	1014345	134.989	0.289
9	1015836	135.189	0.289
9	1017070	135.389	0.289
9	1018193	135.592	0.292
9	1019298	135.792	0.292
9	1020438	136	0.3
9	1021526	136.19	0.29
9	1022617	136.389	0.289
9	1023717	136.589	0.289
9	1024819	136.791	0.291
9	1025901	136.989	0.289
9	1026954	137.264	0.364
9	1027995	137.466	0.366
9	1029134	137.589	0.289
9	1030362	137.792	0.292
9	1031455	137.99	0.29
9	1032596	138.191	0.291
9	1033368	138.464	0.364
9	1034515	138.665	0.365
9	1035792	138.793	0.293
9	1036999	138.991	0.291
9	1037992	139.19	0.29
9	1039055	139.39	0.29
9	1040198	139.589	0.289
9	1041134	139.789	0.289
9	1042344	139.99	0.29
9	1043587	140.192	0.292
9	1044636	140.389	0.289
9	1045792	140.597	0.297
9	1046810	140.791	0.291
9	1047982	140.988	0.288
9	1049138	141.191	0.291
9	1050309	141.389	0.289
9	1051531	141.589	0.289
9	1052620	141.788	0.288
9	1053725	141.992	0.292
9	1054856	142.188	0.288
9	1055809	142.389	0.289
9	1056594	142.593	0.293
9	1058014	142.789	0.289
9	1059261	142.988	0.288
9	1060403	143.19	0.29
9	1061494	143.388	0.288
9	1062593	143.588	0.288
9	1063503	143.791	0.291
9	1064687	143.99	0.29
9	1065944	144.191	0.291
9	1067030	144.389	0.289
9	1068122	144.588	0.288
9	1069077	144.789	0.289
9	1070140	144.989	0.289
9	1071485	145.19	0.29
9	1072498	145.465	0.365
9	1073450	145.624	0.324
9	1074502	145.789	0.289
9	1075807	145.988	0.288
9	1077079	146.189	0.289
9	1078176	146.391	0.291
9	1079261	146.589	0.289
9	1080159	146.788	0.288
9	1081350	146.989	0.289
9	1082606	147.192	0.292
9	1083693	147.389	0.289
9	1084789	147.588	0.288
9	1085881	147.788	0.288
9	1086978	147.989	0.289
9	1088146	148.195	0.295
9	1089232	148.392	0.292
9	1090320	148.589	0.289
9	1091410	148.789	0.289
9	1092511	148.99	0.29
9	1093644	149.188	0.288
9	1094534	149.388	0.288
9	1095730	149.59	0.29
9	1096944	149.789	0.289
9	1098037	149.99	0.29
9	1099179	150.19	0.29
9	1100071	150.388	0.288
9	1101128	150.589	0.289
9	1102332	150.867	0.367
9	1103595	151.019	0.319
9	1104770	151.189	0.289
9	1105675	151.388	0.288
9	1106862	151.589	0.289
9	1107868	151.789	0.289
9	1108905	151.988	0.288
9	1110147	152.189	0.289
9	1111437	152.39	0.29
9	1112471	152.667	0.367
9	1113570	152.822	0.322
9	1114592	152.989	0.289
9	1115706	153.189	0.289
9	1116805	153.391	0.291
9	1117995	153.591	0.291
9	1119198	153.789	0.289
9	1120289	153.988	0.288
9	1121434	154.19	0.29
9	1122541	154.391	0.291
9	1123618	154.588	0.288
9	1124521	154.789	0.289
9	1125710	154.989	0.289
9	1126819	155.191	0.291
9	1127897	155.393	0.293
9	1129204	155.59	0.29
9	1130299	155.788	0.288
9	1131388	155.988	0.288
9	1132539	156.19	0.29
9	1133328	156.465	0.365
9	1134476	156.665	0.365
9	1135736	156.79	0.29
9	1136950	156.99	0.29
9	1138012	157.265	0.365
9	1139547	157.507	0.407
9	1140091	157.596	0.296
9	1141406	157.79	0.29
9	1142495	157.99	0.29
9	1143557	158.264	0.364
9	1144668	158.42	0.32
9	1145858	158.593	0.293
9	1146958	158.795	0.295
9	1148031	158.989	0.289
9	1149191	159.193	0.293
9	1150272	159.389	0.289
9	1151369	159.59	0.29
9	1152461	159.789	0.289
9	1153563	159.992	0.292
9	1154623	160.267	0.367
9	1155335	160.419	0.319
9	1156467	160.589	0.289
9	1158015	160.79	0.29
9	1159140	160.99	0.29
9	1160290	161.189	0.289
9	1161552	161.464	0.364
9	1162491	161.593	0.293
9	1163569	161.789	0.289
9	1164669	161.989	0.289
9	1165804	162.189	0.289
9	1166904	162.389	0.289
9	1168001	162.59	0.29
9	1169016	162.864	0.364
9	1169972	163.019	0.319
9	1171239	163.189	0.289
9	1172446	163.388	0.288
9	1173470	163.665	0.365
9	1174679	163.864	0.364
9	1175755	163.991	0.291
9	1176756	164.194	0.294
9	1177808	164.389	0.289
9	1179110	164.59	0.29
9	1180004	164.792	0.292
9	1181196	164.992	0.292
9	1182443	165.19	0.29
9	1183535	165.388	0.288
9	1184664	165.59	0.29
9	1185690	165.867	0.367
9	1186871	166.026	0.326
9	1187999	166.19	0.29
9	1188968	166.39	0.29
9	1190021	166.665	0.365
9	1191470	166.907	0.407
9	1192390	167.057	0.357
9	1193619	167.189	0.289
9	1194725	167.392	0.292
9	1195811	167.589	0.289
9	1196916	167.792	0.292
9	1197803	167.989	0.289
9	1199032	168.189	0.289
9	1200236	168.388	0.288
9	1200998	168.592	0.292
9	1201979	168.788	0.288
9	1203552	168.993	0.293
9	1204741	169.206	0.306
9	1205597	169.389	0.289
9	1206781	169.59	0.29
9	1207987	169.789	0.289
9	1209089	169.989	0.289
9	1210245	170.195	0.295
9	1211328	170.39	0.29
9	1212445	170.589	0.289
9	1213534	170.788	0.288
9	1214640	170.989	0.289
9	1215636	171.19	0.29
9	1216696	171.465	0.365
9	1217933	171.62	0.32
9	1219113	171.793	0.293
9	1220204	171.99	0.29
9	1221144	172.189	0.289
9	1222324	172.388	0.288
9	1223558	172.594	0.294
9	1224636	172.789	0.289
9	1225729	172.988	0.288
9	1226884	173.192	0.292
9	1228015	173.407	0.307
9	1229058	173.589	0.289
9	1229962	173.793	0.293
9	1231137	173.988	0.288
9	1232415	174.19	0.29
9	1233492	174.388	0.288
9	1234593	174.588	0.288
9	1235496	174.789	0.289
9	1236678	174.989	0.289
9	1237939	175.189	0.289
9	1238929	175.465	0.365
9	1239706	175.667	0.367
9	1240435	175.864	0.364
9	1241518	176.108	0.408
9	1241943	176.265	0.365
9	1242763	176.465	0.365
9	1260882	187.264	10.764
9	1260888	187.264	10.364
9	1260917	187.264	8.964
9	1260920	187.264	8.764
9	1260924	187.264	8.564
9	1260933	187.264	8.164
9	1260943	187.264	7.564
9	1260947	187.264	7.364
9	1260973	187.264	5.764
9	1260976	187.264	5.564
9	1260979	187.264	5.364
9	1260982	187.264	5.164
9	1260997	187.264	4.364
9	1261000	187.264	4.164
9	1261018	187.264	3.364
9	1261034	187.264	2.564
9	1261040	187.264	2.164
9	1261042	187.264	1.964
9	1261051	187.264	1.364
9	1261059	187.264	0.964
9	1261062	187.264	0.764
9	1261067	187.264	0.564
9	1261072	187.264	0.364
9	1261232	187.265	10.965
9	1261245	187.265	10.165
9	1261253	187.265	9.365
9	1261278	187.265	7.765
9	1261288	187.265	7.165
9	1261294	187.265	6.765
9	1261299	187.265	6.165
9	1261322	187.265	4.965
9	1261328	187.265	4.565
9	1261337	187.265	3.965
9	1261341	187.265	3.765
9	1261350	187.265	2.965
9	1261352	187.265	2.765
9	1261363	187.265	1.765
9	1261455	187.266	9.966
9	1261459	187.266	9.566
9	1261474	187.266	6.966
9	1261495	187.266	3.566
9	1261508	187.266	2.366
9	1261561	187.267	7.967
9	1261568	187.267	6.367
9	1261574	187.267	4.767
9	1261582	187.267	1.567
9	1261583	187.267	1.167
9	1261660	187.268	10.568
9	1262377	187.27	9.17
9	1262567	187.271	3.171
9	1262634	187.272	8.372
9	1262682	187.273	9.773
9	1263126	187.276	6.576
9	1267712	187.676	0.576
9	1267716	187.676	0.376
9	1268295	187.865	0.365
9	1268816	188.066	0.366
9	1269271	188.264	0.364
9	1269736	188.464	0.364
9	1270213	188.666	0.366
9	1270676	188.865	0.365
9	1271185	189.064	0.364
9	1272101	189.428	0.528
9	1272113	189.464	0.364
12	9278	10.5	40
12	54252	15.5	290
12	99489	20.5	540
12	143809	25.5	790
12	189436	30.5	1040
12	234115	35.5	1280
12	280627	40.5	1540
12	325746	45.5	1790
12	370960	50.5	2040
12	415579	55.5	2290
12	461359	60.5	2540
12	506116	65.5	2790
12	551974	70.5	3040
12	590968	75.5	3290
12	627552	80.5	3540
12	663843	85.5	3790
12	700532	90.5	4040
12	736963	95.5	4290
12	773261	100.5	4540
12	809535	105.5	4790
12	846040	110.5	5040
12	882473	115.5	5290
12	918760	120.5	5540
12	955079	125.5	5790
12	989699	130.5	6040
12	1017401	135.5	6290
12	1045098	140.5	6540
12	1072605	145.5	6790
12	1100463	150.5	7040
12	1128330	155.5	7290
12	1155486	160.5	7530
12	1183876	165.5	7790
12	1211665	170.5	8040
12	1239032	175.5	8290
12	1245585	180.5	8340
12	1248863	185.5	8340

