version 2
run FastSMR-6-20181114-02:23:18-9196
attr configname FastSMR
attr datetime 20181114-02:23:18
attr experiment FastSMR
attr inifile omnetpp.ini
attr iterationvars "$GCCycleForLatency=7000, $GC=true"
attr iterationvarsf GCCycleForLatency=7000,GC=true-
attr measurement "$GCCycleForLatency=7000, $GC=true"
attr network abstract.FastSMRModel
attr processid 9196
attr repetition 0
attr replication #0
attr resultdir results
attr runnumber 6
attr seedset 6
itervar GC true
itervar GCCycleForLatency 7000
param FastSMRModel.client_num 10
param FastSMRModel.logical_computer "\"client[0]\""
param **.globalParameters.max_distance 20000000m
param **.globalParameters.fix_latency 100ms
param **.globalParameters.latency_gen_mode 0
param **.globalStatistics.cool_down 10s
param **.underlayConfigurator.lcType "\"abstract.LogicComputer\""
param **.underlayConfigurator.lcName "\"logicComputer\""
param **.underlayConfigurator.nodeType "\"hosts.Node\""
param **.underlayConfigurator.nodeName "\"node\""
param **.underlayConfigurator.clientType "\"hosts.Client\""
param **.underlayConfigurator.clientName "\"client\""
param **.client[*].ctrl.initJoinTime 3000ms
param **.client[*].ctrl.loadCycle 500ms
param **.client[*].ctrl.discoveryCycle 1000ms
param **.client[*].ctrl.deviate false
param **.node[*].IPInterface "\"IPAddress\""
param **.node[*].HBcycle 1000ms
param **.node[*].ctrl.roundCycle 200ms
param **.node[*].ctrl.cycleStart 4000ms
param **.node[*].ctrl.GCCycle 7000ms
param **.node[*].ctrl.GC true
param **.rendezvous.ctrl.cycle 1000ms
param **.rendezvous.ctrl.starttime 5000ms
param **.rendezvous.replicaNumPolicyModule "\"replication\""
param **.rendezvous.replication.threshold 3
param **.rendezvous.replication.max_replica 5
param **.clock.err_mean 74ms
param **.clock.err_std 175ms
param **.pktLossRate 0.01
param **.Copt 200000000mps
param **.BW 1.04858e6bps
param **.MTU 12144b
param **.jitter_mu 1
param **.jitter_sigma 0.5
param **.Dmin 50ms
param **.jitter 50ms
param **.churnGeneratorModule "\"churnGenerator\""
param **.churnGenerator.stable_fraction 0.2
param **.churnGenerator.stable_mean 9000000ms
param **.churnGenerator.sessionLenShape 0.38
param **.churnGenerator.sessionLenScale 42.4
param **.churnGenerator.sessionLenMin 10s
param **.churnGenerator.sessionLength 30min
param **.churnGenerator.scan_cycle 100ms
param **.churnGenerator.life_span_min 10s
param **.churnGenerator.life_span_max 200s
param **.coordinator.locXMax 750
param **.coordinator.locYMax 550
param **.coordinator.locXMin 200
param **.coordinator.locYMin 50
param **.coordinator.LCXMax 1050
param **.coordinator.LCYMax 550
param **.coordinator.LCXMin 850
param **.coordinator.LCYMin 50
param **.coordinator.percept_radius 1000

vector 0 FastSMRModel.client[9] IndividualInteractionLatency:vector ETV
attr source latency
attr title "Individual Interaction Latency, vector"
vector 1 FastSMRModel.logicComputer[0].node[0] QdLengthVector:vector ETV
attr source QdLength
attr title "Qd Length, vector"
vector 2 FastSMRModel.logicComputer[0].node[1] QdLengthVector:vector ETV
attr source QdLength
attr title "Qd Length, vector"
vector 3 FastSMRModel.logicComputer[0].node[2] QdLengthVector:vector ETV
attr source QdLength
attr title "Qd Length, vector"
vector 4 FastSMRModel.logicComputer[0].node[3] QdLengthVector:vector ETV
attr source QdLength
attr title "Qd Length, vector"
vector 5 FastSMRModel.logicComputer[0].node[4] QdLengthVector:vector ETV
attr source QdLength
attr title "Qd Length, vector"
vector 6 FastSMRModel.client[2] IndividualInteractionLatency:vector ETV
attr source latency
attr title "Individual Interaction Latency, vector"
vector 7 FastSMRModel.client[4] IndividualInteractionLatency:vector ETV
attr source latency
attr title "Individual Interaction Latency, vector"
vector 8 FastSMRModel.client[7] IndividualInteractionLatency:vector ETV
attr source latency
attr title "Individual Interaction Latency, vector"
vector 9 FastSMRModel.client[5] IndividualInteractionLatency:vector ETV
attr source latency
attr title "Individual Interaction Latency, vector"
vector 10 FastSMRModel.client[6] IndividualInteractionLatency:vector ETV
attr source latency
attr title "Individual Interaction Latency, vector"
vector 11 FastSMRModel.client[0] IndividualInteractionLatency:vector ETV
attr source latency
attr title "Individual Interaction Latency, vector"
vector 12 FastSMRModel.client[1] IndividualInteractionLatency:vector ETV
attr source latency
attr title "Individual Interaction Latency, vector"
vector 13 FastSMRModel.client[3] IndividualInteractionLatency:vector ETV
attr source latency
attr title "Individual Interaction Latency, vector"
vector 14 FastSMRModel.client[8] IndividualInteractionLatency:vector ETV
attr source latency
attr title "Individual Interaction Latency, vector"
4	5593	10.1	30
4	7500	10.3	40
4	9289	10.5	50
4	11068	10.7	60
4	12845	10.9	70
4	14529	11.1	80
4	16273	11.3	90
4	18015	11.5	100
4	19481	11.7	110
4	21245	11.9	120
4	22819	12.1	130
4	24541	12.3	140
4	26095	12.5	140
4	26110	12.5	150
4	32301	13.12	60
4	32301	13.12	70
4	32301	13.12	80
4	34641	13.3	90
4	40080	13.919	100
4	40080	13.919	110
4	40080	13.919	120
4	41847	14.1	130
4	43711	14.3	140
4	45038	14.5	150
4	47195	14.7	160
4	49084	14.9	170
4	50776	15.1	180
4	52682	15.3	190
4	53850	15.5	200
4	56181	15.7	210
4	58111	15.9	220
4	59944	16.1	230
4	61725	16.3	240
4	63512	16.5	250
4	68726	17.119	260
4	68726	17.119	270
4	68726	17.119	280
4	70522	17.3	290
4	75951	17.923	300
4	75951	17.923	310
4	75951	17.923	320
4	77604	18.1	330
4	79683	18.3	340
4	81582	18.5	350
4	83202	18.7	360
4	88371	19.321	370
4	89816	19.5	370
4	92201	19.741	10
4	92201	19.741	20
4	95953	20.161	30
4	95953	20.161	40
4	99511	20.585	50
4	101425	20.738	60
4	101425	20.738	70
4	101425	20.738	80
4	101425	20.738	90
4	103309	20.9	100
4	105091	21.1	110
4	110618	21.721	120
4	110618	21.721	130
4	110618	21.721	140
4	112478	21.9	150
4	114407	22.1	160
4	116208	22.3	170
4	117665	22.5	180
4	119458	22.7	190
4	124672	23.321	200
4	124672	23.321	210
4	124672	23.321	220
4	126875	23.5	230
4	128845	23.7	240
4	130076	23.9	250
4	131278	24.1	260
4	133805	24.3	270
4	136080	24.5	280
4	137375	24.7	290
4	139374	24.9	300
4	141539	25.1	310
4	146908	25.719	320
4	146908	25.719	330
4	146908	25.719	340
4	148638	25.9	350
4	150285	26.1	360
4	151743	26.3	370
4	153996	26.5	370
4	154011	26.5	380
4	155809	26.7	370
4	157807	26.9	30
4	159443	27.1	40
4	161441	27.3	50
4	163218	27.5	60
4	165003	27.7	70
4	166792	27.9	80
4	168617	28.1	90
4	170402	28.3	100
4	172191	28.5	110
4	177616	29.121	120
4	177616	29.121	130
4	177616	29.121	140
4	179344	29.3	150
4	181184	29.5	160
4	182989	29.7	170
4	184465	29.9	180
4	186499	30.1	190
4	188147	30.3	200
4	189615	30.5	210
4	191880	30.7	220
4	193799	30.9	230
4	195634	31.1	240
4	197409	31.3	250
4	199198	31.5	260
4	200991	31.7	270
4	202619	31.9	280
4	208658	32.619	290
4	208658	32.619	300
4	208658	32.619	310
4	209564	32.7	320
4	211425	32.9	330
4	213629	33.1	340
4	215108	33.3	350
4	217096	33.5	350
4	217112	33.5	360
4	219074	33.7	370
4	224514	34.327	30
4	224514	34.327	40
4	224514	34.327	50
4	226147	34.5	60
4	231291	35.12	70
4	231291	35.12	80
4	231291	35.12	90
4	233359	35.3	100
4	235170	35.5	110
4	237088	35.7	120
4	238911	35.9	130
4	244026	36.524	140
4	244026	36.524	150
4	244026	36.524	160
4	245785	36.7	170
4	247340	36.9	180
4	249345	37.1	190
4	251488	37.3	200
4	253128	37.5	210
4	254592	37.7	220
4	256691	37.9	230
4	258645	38.1	240
4	260612	38.3	250
4	262428	38.5	260
4	263966	38.7	270
4	265430	38.9	280
4	267480	39.1	290
4	269080	39.3	300
4	270812	39.5	310
4	272374	39.7	320
4	274743	39.9	330
4	276775	40.1	340
4	278726	40.3	350
4	280500	40.5	350
4	280515	40.5	360
4	282352	40.7	370
4	283962	40.9	30
4	285424	41.1	40
4	286574	41.3	50
4	289101	41.5	60
4	291396	41.7	70
4	293171	41.9	80
4	298197	42.524	90
4	302066	42.944	100
4	305007	43.372	110
4	305007	43.372	120
4	305007	43.372	130
4	309361	43.759	140
4	309361	43.759	150
4	309361	43.759	160
4	309361	43.759	170
4	311023	43.9	180
4	313100	44.1	190
4	314885	44.3	200
4	316471	44.5	210
4	318461	44.7	220
4	320250	44.9	230
4	322075	45.1	240
4	323866	45.3	250
4	325657	45.5	260
4	327438	45.7	270
4	329219	45.9	280
4	331056	46.1	290
4	332849	46.3	300
4	334614	46.5	310
4	341524	47.343	320
4	341524	47.343	330
4	341524	47.343	340
4	341524	47.343	350
4	343241	47.5	350
4	343256	47.5	360
4	345512	47.7	370
4	347303	47.9	30
4	348941	48.1	40
4	350576	48.3	50
4	352246	48.5	60
4	354445	48.7	70
4	356350	48.9	80
4	361580	49.521	90
4	361580	49.521	100
4	361580	49.521	110
4	363390	49.7	120
4	365374	49.9	130
4	367244	50.1	140
4	369035	50.3	150
4	370808	50.5	160
4	372605	50.7	170
4	374390	50.9	180
4	376215	51.1	190
4	378000	51.3	200
4	379785	51.5	210
4	381562	51.7	220
4	383357	51.9	230
4	385184	52.1	240
4	386666	52.3	250
4	388652	52.5	260
4	390360	52.7	270
4	392156	52.9	280
4	394205	53.1	290
4	395986	53.3	300
4	397576	53.5	310
4	403690	54.219	320
4	403690	54.219	330
4	403690	54.219	340
4	404589	54.3	350
4	406786	54.5	350
4	406801	54.5	360
4	408662	54.7	370
4	410451	54.9	30
4	412127	55.1	40
4	413893	55.3	50
4	415608	55.5	60
4	417097	55.7	70
4	419332	55.9	80
4	421329	56.1	90
4	423112	56.3	100
4	424883	56.5	110
4	426487	56.7	120
4	428289	56.9	130
4	430132	57.1	140
4	432135	57.3	150
4	433916	57.5	160
4	435450	57.7	170
4	436904	57.9	180
4	442455	58.521	190
4	446445	58.94	200
4	446445	58.94	210
4	446445	58.94	220
4	446445	58.94	230
4	448222	59.1	240
4	450122	59.3	250
4	452041	59.5	260
4	453853	59.7	270
4	455644	59.9	280
4	457276	60.1	290
4	459270	60.3	300
4	461067	60.5	310
4	462842	60.7	320
4	468266	61.324	330
4	468266	61.324	340
4	468266	61.324	350
4	469975	61.5	350
4	473715	61.92	10
4	477049	62.34	20
4	477049	62.34	30
4	477049	62.34	40
4	477049	62.34	50
4	478759	62.5	60
4	481001	62.7	70
4	482784	62.9	80
4	484626	63.1	90
4	486414	63.3	100
4	487934	63.5	110
4	489408	63.7	120
4	495288	64.319	130
4	495288	64.319	140
4	495288	64.319	150
4	497211	64.5	160
4	502724	65.124	170
4	502724	65.124	180
4	502724	65.124	190
4	508038	65.721	200
4	508038	65.721	210
4	508038	65.721	220
4	509844	65.9	230
4	511760	66.1	240
4	513547	66.3	250
4	515181	66.5	260
4	517091	66.7	270
4	518904	66.9	280
4	520540	67.1	290
4	522548	67.3	300
4	524325	67.5	310
4	526114	67.7	320
4	527899	67.9	330
4	529728	68.1	340
4	531509	68.3	350
4	533282	68.5	350
4	533297	68.5	360
4	534989	68.7	370
4	536923	68.9	30
4	538589	69.1	40
4	540571	69.3	50
4	542362	69.5	60
4	544147	69.7	70
4	545924	69.9	80
4	547614	70.1	90
4	549524	70.3	100
4	551339	70.5	110
4	553114	70.7	120
4	554911	70.9	130
4	556585	71.1	140
4	558525	71.3	150
4	560057	71.5	160
4	565063	72.122	170
4	565063	72.122	180
4	565063	72.122	190
4	567258	72.3	200
2	5591	10.1	30
2	7498	10.3	40
2	9287	10.5	50
2	11066	10.7	60
2	12843	10.9	70
2	16042	11.287	80
2	16271	11.3	90
2	18013	11.5	100
2	19479	11.7	110
2	21243	11.9	120
2	22817	12.1	130
2	24539	12.3	140
2	26093	12.5	140
2	26108	12.5	150
2	27894	12.7	60
2	29165	12.9	70
2	31563	13.1	80
2	34639	13.3	90
2	36487	13.5	100
2	37955	13.7	110
2	39443	13.9	120
2	41845	14.1	130
2	43709	14.3	140
2	45036	14.5	150
2	47193	14.7	160
2	49082	14.9	170
2	50774	15.1	180
2	53696	15.487	190
2	53848	15.5	200
2	56179	15.7	210
2	58109	15.9	220
2	59942	16.1	230
2	61723	16.3	240
2	63510	16.5	250
2	65297	16.7	260
2	66455	16.9	270
2	68169	17.1	280
2	70520	17.3	290
2	72525	17.5	300
2	73688	17.7	310
2	75377	17.9	320
2	77602	18.1	330
2	79681	18.3	340
2	81580	18.5	350
2	83200	18.7	360
2	84966	18.9	370
2	86655	19.1	380
2	87849	19.3	390
2	89814	19.5	390
2	89829	19.5	400
2	91514	19.7	40
2	93226	19.9	50
2	95094	20.1	60
2	96976	20.3	70
2	98291	20.5	80
2	100496	20.7	90
2	103307	20.9	100
2	106154	21.282	110
2	106364	21.3	120
2	108504	21.5	130
2	109971	21.7	140
2	112476	21.9	150
2	114405	22.1	160
2	116206	22.3	170
2	117663	22.5	180
2	119456	22.7	190
2	121262	22.9	200
2	122988	23.1	210
2	124137	23.3	220
2	126873	23.5	230
2	128843	23.7	240
2	130074	23.9	250
2	131276	24.1	260
2	133803	24.3	270
2	137203	24.686	280
2	139188	24.884	290
2	139372	24.9	300
2	141537	25.1	310
2	143165	25.3	320
2	144768	25.5	330
2	146264	25.7	340
2	148636	25.9	350
2	150283	26.1	360
2	151741	26.3	370
2	153994	26.5	370
2	155595	26.684	380
2	155807	26.7	20
2	159247	27.086	30
2	159441	27.1	40
2	161439	27.3	50
2	163216	27.5	60
2	165001	27.7	70
2	166790	27.9	80
2	168615	28.1	90
2	170400	28.3	100
2	172189	28.5	110
2	175060	28.883	120
2	175244	28.9	130
2	176972	29.1	140
2	179342	29.3	150
2	181182	29.5	160
2	182987	29.7	170
2	184463	29.9	180
2	186497	30.1	190
2	188145	30.3	200
2	189613	30.5	210
2	191878	30.7	220
2	193797	30.9	230
2	195632	31.1	240
2	197407	31.3	250
2	199196	31.5	260
2	200989	31.7	270
2	202617	31.9	280
2	204591	32.1	290
2	206078	32.3	300
2	207548	32.5	310
2	211104	32.882	320
2	211423	32.9	330
2	213627	33.1	340
2	215106	33.3	350
2	217094	33.5	350
2	217110	33.5	360
2	219072	33.7	20
2	220869	33.9	30
2	222376	34.1	40
2	223851	34.3	50
2	226145	34.5	60
2	227928	34.7	70
2	229552	34.9	80
2	230770	35.1	90
2	233357	35.3	100
2	235168	35.5	110
2	237086	35.7	120
2	238909	35.9	130
2	240726	36.1	140
2	243293	36.488	150
2	243471	36.5	160
2	245783	36.7	170
2	247338	36.9	180
2	249343	37.1	190
2	251486	37.3	200
2	253126	37.5	210
2	254590	37.7	220
2	256689	37.9	230
2	258643	38.1	240
2	260610	38.3	250
2	262426	38.5	260
2	263964	38.7	270
2	265428	38.9	280
2	267478	39.1	290
2	269078	39.3	300
2	270810	39.5	310
2	272372	39.7	320
2	274741	39.9	330
2	276773	40.1	340
2	278724	40.3	350
2	280498	40.5	350
2	280513	40.5	360
2	283730	40.882	20
2	283960	40.9	30
2	285422	41.1	40
2	286572	41.3	50
2	289099	41.5	60
2	291394	41.7	70
2	294573	42.081	80
2	294811	42.1	90
2	296471	42.3	100
2	297703	42.5	110
2	299148	42.7	120
2	301112	42.9	130
2	303035	43.1	140
2	304317	43.3	150
2	306190	43.5	160
2	308366	43.7	170
2	311021	43.9	180
2	313098	44.1	190
2	316241	44.481	200
2	316469	44.5	210
2	318459	44.7	220
2	320248	44.9	230
2	322073	45.1	240
2	323864	45.3	250
2	325655	45.5	260
2	327436	45.7	270
2	329217	45.9	280
2	331054	46.1	290
2	332847	46.3	300
2	334612	46.5	310
2	336401	46.7	320
2	338439	47.086	330
2	338613	47.1	340
2	340759	47.3	350
2	343239	47.5	350
2	343254	47.5	360
2	345510	47.7	20
2	348717	48.082	30
2	350390	48.286	40
2	352034	48.485	50
2	352244	48.5	60
2	354443	48.7	70
2	356348	48.9	80
2	358695	49.282	90
2	358891	49.3	100
2	361023	49.5	110
2	363388	49.7	120
2	365372	49.9	130
2	367242	50.1	140
2	369033	50.3	150
2	370806	50.5	160
2	372603	50.7	170
2	374388	50.9	180
2	376213	51.1	190
2	377998	51.3	200
2	379783	51.5	210
2	381560	51.7	220
2	383355	51.9	230
2	385182	52.1	240
2	386664	52.3	250
2	390134	52.682	260
2	391940	52.884	270
2	392154	52.9	280
2	394203	53.1	290
2	397372	53.485	300
2	399154	53.683	310
2	399362	53.7	320
2	400896	53.9	330
2	402565	54.1	340
2	404587	54.3	350
2	406784	54.5	350
2	406799	54.5	360
2	408660	54.7	20
2	410449	54.9	30
2	412125	55.1	40
2	413891	55.3	50
2	415606	55.5	60
2	417095	55.7	70
2	419330	55.9	80
2	421327	56.1	90
2	423110	56.3	100
2	426265	56.683	110
2	428045	56.881	120
2	429917	57.083	130
2	430130	57.1	140
2	432133	57.3	150
2	433914	57.5	160
2	435448	57.7	170
2	438749	58.084	180
2	439015	58.1	190
2	440525	58.3	200
2	441899	58.5	210
2	443775	58.7	220
2	445545	58.9	230
2	448220	59.1	240
2	450120	59.3	250
2	452039	59.5	260
2	453851	59.7	270
2	457076	60.09	280
2	457274	60.1	290
2	459268	60.3	300
2	461065	60.5	310
2	462840	60.7	320
2	464613	60.9	330
2	466142	61.1	340
2	467606	61.3	350
2	469973	61.5	350
2	469988	61.5	360
2	471578	61.7	20
2	473064	61.9	30
2	474904	62.1	40
2	478565	62.484	50
2	478757	62.5	60
2	480999	62.7	70
2	482782	62.9	80
2	484624	63.1	90
2	486412	63.3	100
2	487932	63.5	110
2	489406	63.7	120
2	491408	63.9	130
2	492739	64.1	140
2	494580	64.3	150
2	497209	64.5	160
2	499063	64.7	170
2	500390	64.9	180
2	502021	65.1	190
2	504419	65.3	200
2	505674	65.5	210
2	507361	65.7	220
2	509842	65.9	230
2	511758	66.1	240
2	513545	66.3	250
2	515179	66.5	260
2	517089	66.7	270
2	520340	67.086	280
2	520538	67.1	290
2	522546	67.3	300
2	524323	67.5	310
2	526112	67.7	320
2	527897	67.9	330
2	529726	68.1	340
2	531507	68.3	350
2	533280	68.5	350
2	533295	68.5	360
2	534987	68.7	20
2	538387	69.089	30
2	538587	69.1	40
2	540569	69.3	50
2	542360	69.5	60
2	544145	69.7	70
2	545922	69.9	80
2	547612	70.1	90
2	549522	70.3	100
2	551337	70.5	110
2	553112	70.7	120
2	554909	70.9	130
2	556583	71.1	140
2	558523	71.3	150
2	560055	71.5	160
2	561534	71.7	170
2	562678	71.9	180
2	564543	72.1	190
2	567256	72.3	200
2	569380	72.5	210
2	570832	72.7	220
2	572013	72.9	230
2	573185	73.1	240
2	573996	73.3	250
2	576365	73.685	260
2	576575	73.7	270
2	578314	73.9	280
2	581934	74.281	290
2	582218	74.3	300
2	584049	74.5	310
2	585487	74.7	320
2	587998	75.081	330
2	588210	75.1	340
2	589550	75.3	350
2	590931	75.5	350
2	590945	75.5	360
2	592621	75.7	30
2	595364	76.082	40
2	595564	76.1	50
2	597209	76.3	60
2	598647	76.5	70
2	599778	76.7	80
2	601429	76.9	90
2	603021	77.1	100
2	604318	77.3	110
2	605640	77.5	120
2	607306	77.7	130
2	608832	77.9	140
2	610316	78.1	150
2	611754	78.3	160
2	613199	78.5	170
2	614638	78.7	180
2	616074	78.9	190
2	617564	79.1	200
2	618750	79.3	210
2	620377	79.5	220
2	621911	79.7	230
2	623357	79.9	240
2	624839	80.1	250
2	626283	80.3	260
2	627414	80.5	270
2	629055	80.7	280
2	630619	80.9	290
2	632107	81.1	300
2	633553	81.3	310
2	634983	81.5	320
2	636425	81.7	330
2	637857	81.9	340
2	639351	82.1	350
2	640785	82.3	360
2	642211	82.5	360
2	642225	82.5	370
2	643717	82.7	20
2	645161	82.9	30
2	646643	83.1	40
2	648083	83.3	50
2	649224	83.5	60
2	650863	83.7	70
2	652118	83.9	80
2	653813	84.1	90
2	655366	84.3	100
2	656809	84.5	110
2	658251	84.7	120
2	659685	84.9	130
2	661179	85.1	140
2	662468	85.3	150
2	664726	85.687	160
2	664916	85.7	170
2	666743	85.9	180
2	668508	86.1	190
2	669948	86.3	200
2	671394	86.5	210
2	672818	86.7	220
2	673957	86.9	230
2	675652	87.1	240
2	677196	87.3	250
2	678497	87.5	260
2	680068	87.7	270
2	681540	87.9	280
2	683030	88.1	290
2	684468	88.3	300
2	685904	88.5	310
2	687346	88.7	320
2	688768	88.9	330
2	690274	89.1	340
2	691716	89.3	350
2	693134	89.5	350
2	693148	89.5	360
2	695976	89.993	20
2	695976	89.993	30
2	696903	90.1	40
2	698851	90.3	50
2	700486	90.5	60
2	701933	90.7	70
2	704478	91.083	80
2	704674	91.1	90
2	706305	91.3	100
2	707293	91.5	110
2	709074	91.7	120
2	710510	91.9	130
2	712136	92.1	140
2	714636	92.482	150
2	716081	92.682	160
2	716285	92.7	170
2	717677	92.9	180
2	719340	93.1	190
2	720906	93.3	200
2	722332	93.5	210
2	723778	93.7	220
2	725218	93.9	230
2	726399	94.1	240
2	728044	94.3	250
2	729596	94.5	260
2	730729	94.7	270
2	732378	94.9	280
2	733982	95.1	290
2	735428	95.3	300
2	736868	95.5	310
2	738309	95.7	320
2	739740	95.9	330
2	741224	96.1	340
2	742668	96.3	350
2	744102	96.5	350
2	744116	96.5	360
2	745594	96.7	20
2	747046	96.9	30
2	748518	97.1	40
2	751025	97.486	50
2	751203	97.5	60
2	752846	97.7	70
2	754300	97.9	80
2	755778	98.1	90
2	757206	98.3	100
2	758347	98.5	110
2	759845	98.7	120
2	761288	98.9	130
2	762991	99.1	140
2	764370	99.3	150
2	765955	99.5	160
2	767409	99.7	170
2	768853	99.9	180
2	770331	100.1	190
2	771779	100.3	200
2	773219	100.5	210
2	775704	100.883	220
2	775910	100.9	230
2	777442	101.1	240
2	778694	101.3	250
2	780385	101.5	260
2	781945	101.7	270
2	783377	101.9	280
2	784710	102.1	290
2	786315	102.3	300
2	787761	102.5	310
2	789046	102.7	320
2	790612	102.9	330
2	792858	103.283	340
2	793129	103.3	350
2	795019	103.5	350
2	795036	103.5	360
2	796226	103.7	20
2	797882	103.9	30
2	799477	104.1	40
2	800770	104.3	50
2	803430	104.684	60
2	803616	104.7	70
2	805249	104.9	80
2	806737	105.1	90
2	808181	105.3	100
2	809617	105.5	110
2	811061	105.7	120
2	812041	105.9	130
2	813896	106.1	140
2	815459	106.3	150
2	816891	106.5	160
2	818335	106.7	170
2	819775	106.9	180
2	821001	107.1	190
2	822628	107.3	200
2	824174	107.5	210
2	825596	107.7	220
2	827052	107.9	230
2	828534	108.1	240
2	829972	108.3	250
2	831418	108.5	260
2	832854	108.7	270
2	834143	108.9	280
2	835763	109.1	290
2	836972	109.3	300
2	838611	109.5	310
2	840004	109.7	320
2	841582	109.9	330
2	842924	110.1	340
2	844529	110.3	350
2	845957	110.5	350
2	845971	110.5	360
2	847144	110.7	20
2	848799	110.9	30
2	850401	111.1	40
2	851688	111.3	50
2	853282	111.5	60
2	854473	111.7	70
2	856126	111.9	80
2	857694	112.1	90
2	859120	112.3	100
2	860566	112.5	110
2	863045	112.881	120
2	863259	112.9	130
2	864948	113.1	140
2	866229	113.3	150
2	867823	113.5	160
2	869274	113.7	170
2	870462	113.9	180
2	872139	114.1	190
2	873677	114.3	200
2	875111	114.5	210
2	876551	114.7	220
2	877985	114.9	230
2	879477	115.1	240
2	880652	115.3	250
2	882314	115.5	260
2	883679	115.7	270
2	885272	115.9	280
2	886760	116.1	290
2	888204	116.3	300
2	889400	116.5	310
2	891009	116.7	320
2	893636	117.081	330
2	893850	117.1	340
2	895497	117.3	350
2	896923	117.5	350
2	896937	117.5	360
2	899444	117.884	20
2	899651	117.9	30
2	901058	118.1	40
2	902453	118.3	50
2	903952	118.5	60
2	905716	118.7	70
2	907181	118.9	80
2	908415	119.1	90
2	910058	119.3	100
2	911586	119.5	110
2	913028	119.7	120
2	914466	119.9	130
2	915942	120.1	140
2	918341	120.482	150
2	918531	120.5	160
2	920296	120.7	170
2	921167	120.9	180
2	922892	121.1	190
2	924381	121.3	200
2	925774	121.5	210
2	927541	121.7	220
2	929065	121.9	230
2	930553	122.1	240
2	932919	122.486	250
2	933085	122.5	260
2	934866	122.7	270
2	936331	122.9	280
2	937815	123.1	290
2	939259	123.3	300
2	940697	123.5	310
2	942135	123.7	320
2	943577	123.9	330
2	944801	124.1	340
2	946420	124.3	350
2	947966	124.5	350
2	947980	124.5	360
2	948881	124.7	20
2	950392	124.9	30
2	952421	125.1	40
2	953874	125.3	50
2	955308	125.5	60
2	957823	125.885	70
2	957999	125.9	80
2	960222	126.286	90
2	960438	126.3	100
2	962629	126.5	110
2	964078	126.7	120
2	965520	126.9	130
2	967006	127.1	140
2	968446	127.3	150
2	969886	127.5	160
2	971328	127.7	170
2	972459	127.9	180
2	974158	128.1	190
2	975706	128.3	200
2	977146	128.5	210
2	978578	128.7	220
2	980032	128.9	230
2	981516	129.1	240
1	5590	10.1	30
1	7497	10.3	40
1	9286	10.5	50
1	11065	10.7	60
1	12842	10.9	70
1	14526	11.1	80
1	16270	11.3	90
1	18012	11.5	100
1	19478	11.7	110
1	21242	11.9	120
1	22816	12.1	130
1	24538	12.3	140
1	26092	12.5	140
1	26107	12.5	150
1	27893	12.7	160
1	29164	12.9	70
1	31562	13.1	80
1	34638	13.3	90
1	36486	13.5	100
1	37954	13.7	110
1	39442	13.9	120
1	41844	14.1	130
1	45711	14.529	140
1	45711	14.529	150
1	47192	14.7	160
1	49081	14.9	170
1	50773	15.1	180
1	54743	15.543	190
1	54743	15.543	200
1	56178	15.7	210
1	58108	15.9	220
1	59941	16.1	230
1	61722	16.3	240
1	63509	16.5	250
1	67029	16.934	260
1	67029	16.934	270
1	68168	17.1	280
1	70519	17.3	290
1	74241	17.729	300
1	74241	17.729	310
1	78497	18.143	320
1	78497	18.143	330
1	79680	18.3	340
1	81579	18.5	350
1	83199	18.7	360
1	84965	18.9	370
1	88540	19.333	380
1	88540	19.333	390
1	89813	19.5	390
1	89828	19.5	400
1	93856	19.929	40
1	93856	19.929	50
1	95093	20.1	60
1	96975	20.3	70
1	98290	20.5	80
1	100495	20.7	90
1	103306	20.9	100
1	105088	21.1	110
1	106363	21.3	120
1	108503	21.5	130
1	109970	21.7	140
1	112475	21.9	150
1	114404	22.1	160
1	118804	22.63	170
1	118804	22.63	180
1	121868	22.937	190
1	121868	22.937	200
1	125065	23.33	210
1	125065	23.33	220
1	126872	23.5	230
1	132623	24.208	240
1	132623	24.208	250
1	132623	24.208	260
1	133802	24.3	270
1	137986	24.731	280
1	137986	24.731	290
1	139371	24.9	300
1	141536	25.1	310
1	143164	25.3	320
1	144767	25.5	330
1	146263	25.7	340
1	148635	25.9	350
1	150282	26.1	360
1	151740	26.3	370
1	153993	26.5	370
1	154008	26.5	380
1	155806	26.7	370
1	157804	26.9	30
1	159440	27.1	40
1	161438	27.3	50
1	163215	27.5	60
1	165000	27.7	70
1	166789	27.9	80
1	168614	28.1	90
1	170399	28.3	100
1	172188	28.5	110
1	173969	28.7	120
1	175243	28.9	130
1	176971	29.1	140
1	179341	29.3	150
1	181181	29.5	160
1	185153	29.933	170
1	185153	29.933	180
1	186496	30.1	190
1	188144	30.3	200
1	189612	30.5	210
1	191877	30.7	220
1	193796	30.9	230
1	195631	31.1	240
1	197406	31.3	250
1	199195	31.5	260
1	200988	31.7	270
1	202616	31.9	280
1	204590	32.1	290
1	206077	32.3	300
1	207547	32.5	310
1	209561	32.7	320
1	211422	32.9	330
1	215786	33.333	340
1	215786	33.333	350
1	217093	33.5	350
1	217109	33.5	360
1	219071	33.7	370
1	220868	33.9	30
1	222375	34.1	40
1	223850	34.3	50
1	226144	34.5	60
1	227927	34.7	70
1	231720	35.136	80
1	231720	35.136	90
1	233356	35.3	100
1	235167	35.5	110
1	237085	35.7	120
1	238908	35.9	130
1	240725	36.1	140
1	242204	36.3	150
1	243470	36.5	160
1	245782	36.7	170
1	250118	37.13	180
1	250118	37.13	190
1	251485	37.3	200
1	253125	37.5	210
1	254589	37.7	220
1	256688	37.9	230
1	258642	38.1	240
1	260609	38.3	250
1	262425	38.5	260
1	263963	38.7	270
1	265427	38.9	280
1	267477	39.1	290
1	269077	39.3	300
1	270809	39.5	310
1	272371	39.7	320
1	274740	39.9	330
1	276772	40.1	340
1	278723	40.3	350
1	280497	40.5	350
1	280512	40.5	360
1	282349	40.7	370
1	287929	41.406	30
1	287929	41.406	40
1	287929	41.406	50
1	289098	41.5	60
1	291393	41.7	70
1	293168	41.9	80
1	294810	42.1	90
1	296470	42.3	100
1	297702	42.5	110
1	299147	42.7	120
1	301111	42.9	130
1	303034	43.1	140
1	304316	43.3	150
1	306189	43.5	160
1	308365	43.7	170
1	311020	43.9	180
1	313097	44.1	190
1	314882	44.3	200
1	316468	44.5	210
1	318458	44.7	220
1	320247	44.9	230
1	322072	45.1	240
1	323863	45.3	250
1	325654	45.5	260
1	327435	45.7	270
1	329216	45.9	280
1	331053	46.1	290
1	332846	46.3	300
1	334611	46.5	310
1	336400	46.7	320
1	337606	46.9	330
1	338612	47.1	340
1	340758	47.3	350
1	343238	47.5	350
1	343253	47.5	360
1	345509	47.7	370
1	347300	47.9	30
1	348938	48.1	40
1	353009	48.535	50
1	353009	48.535	60
1	354442	48.7	70
1	356347	48.9	80
1	357919	49.1	90
1	358890	49.3	100
1	361022	49.5	110
1	363387	49.7	120
1	365371	49.9	130
1	367241	50.1	140
1	369032	50.3	150
1	370805	50.5	160
1	372602	50.7	170
1	374387	50.9	180
1	376212	51.1	190
1	377997	51.3	200
1	379782	51.5	210
1	381559	51.7	220
1	383354	51.9	230
1	387324	52.329	240
1	387324	52.329	250
1	388649	52.5	260
1	390357	52.7	270
1	392153	52.9	280
1	394202	53.1	290
1	395983	53.3	300
1	397573	53.5	310
1	399361	53.7	320
1	400895	53.9	330
1	402564	54.1	340
1	404586	54.3	350
1	406783	54.5	350
1	406798	54.5	360
1	408659	54.7	370
1	410448	54.9	30
1	412124	55.1	40
1	413890	55.3	50
1	415605	55.5	60
1	417094	55.7	70
1	419329	55.9	80
1	421326	56.1	90
1	423109	56.3	100
1	424880	56.5	110
1	426484	56.7	120
1	428286	56.9	130
1	430129	57.1	140
1	432132	57.3	150
1	433913	57.5	160
1	435447	57.7	170
1	436901	57.9	180
1	441213	58.416	190
1	441213	58.416	200
1	444398	58.731	210
1	444398	58.731	220
1	445544	58.9	230
1	448219	59.1	240
1	450119	59.3	250
1	452038	59.5	260
1	453850	59.7	270
1	455641	59.9	280
1	457273	60.1	290
1	459267	60.3	300
1	461064	60.5	310
1	462839	60.7	320
1	464612	60.9	330
1	466141	61.1	340
1	467605	61.3	350
1	469972	61.5	350
1	469987	61.5	360
1	471577	61.7	370
1	473063	61.9	30
1	474903	62.1	40
1	476413	62.3	50
1	478756	62.5	60
1	480998	62.7	70
1	482781	62.9	80
1	484623	63.1	90
1	486411	63.3	100
1	487931	63.5	110
1	489405	63.7	120
1	491407	63.9	130
1	492738	64.1	140
1	494579	64.3	150
1	497208	64.5	160
1	499062	64.7	170
1	500389	64.9	180
1	502020	65.1	190
1	506225	65.529	200
1	506225	65.529	210
1	507360	65.7	220
1	509841	65.9	230
1	511757	66.1	240
1	513544	66.3	250
1	515178	66.5	260
1	517088	66.7	270
1	518901	66.9	280
1	520537	67.1	290
1	522545	67.3	300
1	524322	67.5	310
1	526111	67.7	320
1	527896	67.9	330
1	529725	68.1	340
1	531506	68.3	350
1	533279	68.5	350
1	533294	68.5	360
1	534986	68.7	370
1	536920	68.9	30
1	538586	69.1	40
1	540568	69.3	50
1	542359	69.5	60
1	544144	69.7	70
1	545921	69.9	80
1	547611	70.1	90
1	549521	70.3	100
1	551336	70.5	110
1	553111	70.7	120
1	554908	70.9	130
1	556582	71.1	140
1	558522	71.3	150
1	560054	71.5	160
1	561533	71.7	170
1	565454	72.132	180
1	565454	72.132	190
1	567255	72.3	200
1	569379	72.5	210
1	570831	72.7	220
1	572012	72.9	230
1	574351	73.33	240
1	574351	73.33	250
1	575319	73.5	260
1	580685	74.145	270
1	580685	74.145	280
1	580685	74.145	290
1	582217	74.3	300
1	584048	74.5	310
1	585486	74.7	320
1	586928	74.9	330
1	590082	75.33	340
1	590930	75.5	340
1	591718	75.561	350
1	591718	75.561	360
1	592620	75.7	370
1	594262	75.9	40
1	595563	76.1	50
1	597208	76.3	60
1	600352	76.736	70
1	600352	76.736	80
1	601428	76.9	90
1	603020	77.1	100
1	604317	77.3	110
1	605639	77.5	120
1	607305	77.7	130
1	608831	77.9	140
1	610315	78.1	150
1	611753	78.3	160
1	613198	78.5	170
1	614637	78.7	180
1	616073	78.9	190
1	617563	79.1	200
1	618749	79.3	210
1	620376	79.5	220
1	621910	79.7	230
1	623356	79.9	240
1	624838	80.1	250
1	627953	80.53	260
1	627953	80.53	270
1	629054	80.7	280
1	630618	80.9	290
1	632106	81.1	300
1	633552	81.3	310
1	634982	81.5	320
1	636424	81.7	330
1	637856	81.9	340
1	639350	82.1	350
1	640784	82.3	360
1	642210	82.5	360
1	642224	82.5	370
1	643716	82.7	370
1	645160	82.9	30
1	646642	83.1	40
1	649748	83.529	50
1	649748	83.529	60
1	652752	83.939	70
1	652752	83.939	80
1	653812	84.1	90
1	655365	84.3	100
1	656808	84.5	110
1	658250	84.7	120
1	659684	84.9	130
1	661178	85.1	140
1	662467	85.3	150
1	666008	85.821	160
1	666008	85.821	170
1	666742	85.9	180
1	668507	86.1	190
1	669947	86.3	200
1	671393	86.5	210
1	674536	86.936	220
1	674536	86.936	230
1	675651	87.1	240
1	677195	87.3	250
1	678496	87.5	260
1	680067	87.7	270
1	681539	87.9	280
1	683029	88.1	290
1	684467	88.3	300
1	685903	88.5	310
1	687345	88.7	320
1	688767	88.9	330
1	690273	89.1	340
1	691715	89.3	350
1	693133	89.5	350
1	693147	89.5	360
1	694631	89.7	370
1	695225	89.9	30
1	696902	90.1	40
1	698850	90.3	50
1	700485	90.5	60
1	701932	90.7	70
1	703366	90.9	80
1	704673	91.1	90
1	707868	91.533	100
1	707868	91.533	110
1	709073	91.7	120
1	710509	91.9	130
1	712135	92.1	140
1	713592	92.3	150
1	714833	92.5	160
1	716284	92.7	170
1	717676	92.9	180
1	719339	93.1	190
1	720905	93.3	200
1	722331	93.5	210
1	723777	93.7	220
1	726952	94.133	230
1	726952	94.133	240
1	728043	94.3	250
1	731270	94.731	260
1	731270	94.731	270
1	732377	94.9	280
1	733981	95.1	290
1	735427	95.3	300
1	736867	95.5	310
1	738308	95.7	320
1	739739	95.9	330
1	741223	96.1	340
1	742667	96.3	350
1	744101	96.5	350
1	744115	96.5	360
1	745593	96.7	370
1	747045	96.9	30
1	748517	97.1	40
1	749953	97.3	50
1	751202	97.5	60
1	752845	97.7	70
1	754299	97.9	80
1	755777	98.1	90
1	758763	98.531	100
1	758763	98.531	110
1	759844	98.7	120
1	761287	98.9	130
1	762990	99.1	140
1	764369	99.3	150
1	765954	99.5	160
1	767408	99.7	170
1	768852	99.9	180
1	770330	100.1	190
1	771778	100.3	200
1	773218	100.5	210
1	774654	100.7	220
1	775909	100.9	230
1	779395	101.34	240
1	779395	101.34	250
1	780384	101.5	260
1	781944	101.7	270
1	783376	101.9	280
1	784709	102.1	290
1	786314	102.3	300
1	787760	102.5	310
1	789045	102.7	320
1	792119	103.132	330
1	792119	103.132	340
1	793128	103.3	350
1	795018	103.5	350
1	796784	103.733	10
1	796784	103.733	20
1	797881	103.9	30
1	799476	104.1	40
1	800769	104.3	50
1	802352	104.5	60
1	803615	104.7	70
1	805248	104.9	80
1	806736	105.1	90
1	808180	105.3	100
1	809616	105.5	110
1	812596	105.929	120
1	812596	105.929	130
1	813895	106.1	140
1	815458	106.3	150
1	816890	106.5	160
1	818334	106.7	170
1	819774	106.9	180
1	821000	107.1	190
1	822627	107.3	200
1	824173	107.5	210
1	825595	107.7	220
1	827051	107.9	230
1	828533	108.1	240
1	829971	108.3	250
1	831417	108.5	260
1	832853	108.7	270
1	834142	108.9	280
1	835762	109.1	290
1	836971	109.3	300
1	838610	109.5	310
1	840003	109.7	320
1	841581	109.9	330
1	842923	110.1	340
1	844528	110.3	350
1	845956	110.5	350
1	847696	110.732	10
1	847696	110.732	20
1	848798	110.9	30
1	850400	111.1	40
1	851687	111.3	50
1	853281	111.5	60
1	854472	111.7	70
1	856125	111.9	80
1	857693	112.1	90
1	859119	112.3	100
1	860565	112.5	110
1	862011	112.7	120
1	863258	112.9	130
1	864947	113.1	140
1	866228	113.3	150
1	867822	113.5	160
1	869273	113.7	170
1	870461	113.9	180
1	872138	114.1	190
1	873676	114.3	200
1	875110	114.5	210
1	876550	114.7	220
1	877984	114.9	230
1	879476	115.1	240
1	880651	115.3	250
1	882313	115.5	260
1	883678	115.7	270
1	885271	115.9	280
1	886759	116.1	290
1	888203	116.3	300
1	889399	116.5	310
1	891008	116.7	320
1	892548	116.9	330
1	893849	117.1	340
1	895496	117.3	350
1	896922	117.5	350
1	896936	117.5	360
1	898271	117.7	370
1	901604	118.132	30
1	903026	118.361	40
1	903026	118.361	50
1	903951	118.5	60
1	905715	118.7	70
1	907180	118.9	80
1	908414	119.1	90
1	910057	119.3	100
1	911585	119.5	110
1	913027	119.7	120
1	914465	119.9	130
1	917544	120.336	140
1	917544	120.336	150
1	918530	120.5	160
1	922156	121.014	170
1	922156	121.014	180
1	924826	121.335	190
1	924826	121.335	200
1	925773	121.5	210
1	927540	121.7	220
1	929064	121.9	230
1	930552	122.1	240
1	931986	122.3	250
1	933084	122.5	260
1	934865	122.7	270
1	936330	122.9	280
1	937814	123.1	290
1	939258	123.3	300
1	940696	123.5	310
1	942134	123.7	320
1	943576	123.9	330
1	944800	124.1	340
1	946419	124.3	350
1	947965	124.5	350
1	949633	124.82	10
1	949633	124.82	20
1	950391	124.9	30
1	952420	125.1	40
1	953873	125.3	50
1	955307	125.5	60
1	956759	125.7	70
1	959644	126.218	80
1	959644	126.218	90
1	960437	126.3	100
1	962628	126.5	110
1	964077	126.7	120
1	965519	126.9	130
1	967005	127.1	140
1	968445	127.3	150
1	969885	127.5	160
1	972995	127.93	170
1	972995	127.93	180
1	974157	128.1	190
1	975705	128.3	200
1	977145	128.5	210
1	978577	128.7	220
1	980031	128.9	230
1	981515	129.1	240
1	982942	129.3	250
1	984029	129.5	260
1	985138	129.7	270
1	986227	129.9	280
1	987373	130.1	290
1	988458	130.3	300
1	990771	130.732	310
1	990771	130.732	320
1	991645	130.9	330
1	992912	131.1	340
1	993991	131.3	350
1	995082	131.5	350
1	995095	131.5	360
1	996208	131.7	20
1	997305	131.9	30
1	998454	132.1	40
1	999549	132.3	50
1	1000644	132.5	60
1	1001739	132.7	70
1	1002840	132.9	80
1	1003975	133.1	90
1	1005068	133.3	100
1	1006163	133.5	110
1	1007258	133.7	120
1	1008355	133.9	130
1	1010679	134.33	140
1	1010679	134.33	150
1	1011584	134.5	160
1	1013989	134.93	170
1	1013989	134.93	180
1	1016249	135.33	190
1	1016249	135.33	200
1	1017137	135.5	210
1	1018357	135.7	220
1	1019441	135.9	230
1	1020570	136.1	240
1	1021683	136.3	250
1	1022772	136.5	260
1	1023873	136.7	270
1	1024960	136.9	280
1	1026101	137.1	290
1	1026938	137.3	300
1	1028207	137.5	310
1	1029420	137.7	320
1	1030517	137.9	330
1	1031652	138.1	340
1	1033376	138.5	340
1	1033827	138.53	350
1	1033827	138.53	360
1	1034862	138.7	30
1	1036091	138.9	40
1	1038431	139.33	50
1	1038431	139.33	60
1	1039322	139.5	70
1	1041780	139.936	80
1	1041780	139.936	90
1	1043985	140.33	100
1	1043985	140.33	110
1	1044885	140.5	120
1	1047308	140.932	130
1	1047308	140.932	140
1	1048236	141.1	150
1	1049296	141.3	160
1	1050541	141.5	170
1	1051649	141.7	180
1	1052734	141.9	190
1	1053883	142.1	200
1	1054980	142.3	210
1	1055800	142.5	220
1	1056986	142.7	230
1	1058283	142.9	240
1	1059412	143.1	250
1	1060511	143.3	260
1	1061612	143.5	270
1	1062693	143.7	280
1	1063800	143.9	290
1	1064949	144.1	300
1	1066032	144.3	310
1	1067117	144.5	320
1	1068228	144.7	330
1	1069321	144.9	340
1	1070462	145.1	350
1	1071559	145.3	360
1	1072640	145.5	360
1	1072653	145.5	370
1	1073766	145.7	20
1	1074601	145.9	30
1	1075942	146.1	40
1	1077129	146.3	50
1	1078222	146.5	60
1	1080581	147.014	70
1	1080581	147.014	80
1	1081208	147.1	90
1	1082671	147.3	100
1	1083770	147.5	110
1	1084856	147.7	120
1	1085962	147.9	130
1	1087105	148.1	140
1	1088190	148.3	150
1	1089138	148.5	160
1	1090374	148.7	170
1	1091489	148.9	180
1	1092636	149.1	190
1	1093723	149.3	200
1	1094822	149.5	210
1	1095919	149.7	220
1	1097014	149.9	230
1	1098147	150.1	240
1	1099246	150.3	250
1	1100339	150.5	260
1	1101432	150.7	270
1	1102275	150.9	280
1	1103572	151.1	290
1	1106007	151.532	300
1	1106007	151.532	310
1	1106877	151.7	320
1	1108090	151.9	330
1	1109231	152.1	340
1	1110330	152.3	350
1	1111407	152.5	350
1	1111420	152.5	360
1	1112392	152.7	20
1	1113636	152.9	30
1	1114529	153.1	40
1	1115561	153.3	50
1	1116861	153.5	60
1	1118116	153.7	70
1	1119209	153.9	80
1	1120352	154.1	90
1	1121449	154.3	100
1	1122548	154.5	110
1	1123641	154.7	120
1	1125747	155.135	130
1	1125747	155.135	140
1	1126589	155.3	150
1	1127999	155.5	160
1	1129216	155.7	170
1	1130154	155.9	180
1	1131428	156.1	190
1	1132553	156.3	200
1	1133649	156.5	210
1	1135976	156.934	220
1	1137198	157.165	230
1	1137198	157.165	240
1	1137920	157.3	250
1	1139064	157.5	260
1	1140300	157.7	270
1	1141419	157.9	280
1	1142546	158.1	290
1	1144884	158.534	300
1	1144884	158.534	310
1	1147055	158.93	320
1	1147055	158.93	330
1	1149321	159.331	340
1	1149321	159.331	350
1	1150199	159.5	350
1	1150212	159.5	360
1	1151449	159.7	20
1	1152540	159.9	30
1	1153687	160.1	40
1	1155805	160.532	50
1	1155805	160.532	60
1	1156907	160.7	70
1	1158119	160.9	80
1	1159268	161.1	90
1	1160367	161.3	100
1	1161460	161.5	110
1	1162557	161.7	120
1	1163642	161.9	130
1	1164788	162.1	140
1	1165882	162.3	150
1	1166983	162.5	160
1	1168080	162.7	170
1	1169016	162.9	180
1	1170272	163.1	190
1	1171415	163.3	200
1	1172504	163.5	210
1	1173605	163.7	220
1	1174700	163.9	230
1	1175837	164.1	240
1	1176785	164.3	250
1	1178003	164.5	260
1	1178864	164.7	270
1	1179891	164.9	280
1	1181390	165.1	290
1	1182485	165.3	300
1	1183318	165.5	310
1	1184611	165.7	320
1	1185792	165.9	330
1	1188000	166.331	340
1	1188492	166.5	340
1	1189281	166.633	10
1	1189281	166.633	20
1	1189807	166.7	30
1	1191233	166.9	40
1	1192527	167.1	50
1	1193628	167.3	60
1	1194719	167.5	70
1	1195828	167.7	80
1	1196918	167.9	90
1	1198056	168.1	100
1	1199153	168.3	110
1	1200252	168.5	120
1	1201341	168.7	130
1	1202432	168.9	140
1	1203579	169.1	150
1	1204670	169.3	160
1	1207014	169.736	170
1	1207014	169.736	180
1	1207867	169.9	190
1	1209110	170.1	200
1	1210211	170.3	210
1	1211312	170.5	220
1	1212397	170.7	230
1	1214756	171.219	240
1	1214756	171.219	250
1	1215375	171.3	260
1	1216848	171.5	270
1	1217792	171.7	280
1	1219045	171.9	290
1	1220195	172.1	300
1	1221288	172.3	310
1	1222391	172.5	320
1	1223478	172.7	330
1	1224569	172.9	340
1	1225724	173.1	350
1	1227315	173.5	350
1	1227897	173.613	10
1	1227897	173.613	20
1	1228441	173.7	30
1	1229996	173.9	40
1	1231315	174.1	50
1	1232410	174.3	60
1	1234702	174.73	70
1	1234702	174.73	80
1	1235591	174.9	90
1	1236854	175.1	100
vector 15 FastSMRModel.logicComputer[0].node[6] QdLengthVector:vector ETV
attr source QdLength
attr title "Qd Length, vector"
vector 16 FastSMRModel.logicComputer[0].node[7] QdLengthVector:vector ETV
attr source QdLength
attr title "Qd Length, vector"
vector 17 FastSMRModel.logicComputer[0].node[5] QdLengthVector:vector ETV
attr source QdLength
attr title "Qd Length, vector"
5	5594	10.1	30
5	7501	10.3	40
5	9290	10.5	50
5	11069	10.7	60
5	12846	10.9	70
5	14530	11.1	80
5	20086	11.72	90
5	23582	12.142	100
5	26096	12.5	100
5	26997	12.561	110
5	29937	12.981	20
5	29937	12.981	30
5	29937	12.981	40
5	29937	12.981	50
5	29937	12.981	60
5	29937	12.981	70
5	31566	13.1	80
5	34642	13.3	90
5	36490	13.5	100
5	37958	13.7	110
5	39446	13.9	120
5	41848	14.1	130
5	43712	14.3	140
5	45039	14.5	150
5	47196	14.7	160
5	49085	14.9	170
5	50777	15.1	180
5	52683	15.3	190
5	53851	15.5	200
5	56182	15.7	210
5	58112	15.9	220
5	59945	16.1	230
5	61726	16.3	240
5	63513	16.5	250
5	65300	16.7	260
5	66458	16.9	270
5	68172	17.1	280
5	70523	17.3	290
5	72528	17.5	300
5	73691	17.7	310
5	75380	17.9	320
5	77605	18.1	330
5	79684	18.3	340
5	81583	18.5	350
5	83203	18.7	360
5	84969	18.9	370
5	86658	19.1	380
5	87852	19.3	390
5	89817	19.5	390
5	89832	19.5	400
5	91517	19.7	370
5	93229	19.9	50
5	98780	20.519	60
5	98780	20.519	70
5	98780	20.519	80
5	100499	20.7	90
5	106889	21.321	100
5	106889	21.321	110
5	106889	21.321	120
5	108507	21.5	130
5	109974	21.7	140
5	112479	21.9	150
5	114408	22.1	160
5	116209	22.3	170
5	117666	22.5	180
5	119459	22.7	190
5	121265	22.9	200
5	122991	23.1	210
5	124140	23.3	220
5	126876	23.5	230
5	131761	24.123	240
5	131761	24.123	250
5	131761	24.123	260
5	133806	24.3	270
5	136081	24.5	280
5	137376	24.7	290
5	139375	24.9	300
5	141540	25.1	310
5	143168	25.3	320
5	144771	25.5	330
5	146267	25.7	340
5	152356	26.32	350
5	152356	26.32	360
5	152356	26.32	370
5	153997	26.5	370
5	154012	26.5	380
5	155810	26.7	390
5	157808	26.9	30
5	159444	27.1	40
5	161442	27.3	50
5	163219	27.5	60
5	165004	27.7	70
5	166793	27.9	80
5	168618	28.1	90
5	170403	28.3	100
5	172192	28.5	110
5	173973	28.7	120
5	175247	28.9	130
5	176975	29.1	140
5	179345	29.3	150
5	181185	29.5	160
5	182990	29.7	170
5	184466	29.9	180
5	190232	30.525	190
5	190232	30.525	200
5	190232	30.525	210
5	191881	30.7	220
5	193800	30.9	230
5	195635	31.1	240
5	197410	31.3	250
5	199199	31.5	260
5	200992	31.7	270
5	202620	31.9	280
5	204594	32.1	290
5	206081	32.3	300
5	207551	32.5	310
5	209565	32.7	320
5	211426	32.9	330
5	213630	33.1	340
5	215109	33.3	350
5	217097	33.5	350
5	217113	33.5	360
5	219075	33.7	370
5	220872	33.9	30
5	222379	34.1	40
5	223854	34.3	50
5	226148	34.5	60
5	227931	34.7	70
5	229555	34.9	80
5	230773	35.1	90
5	233360	35.3	100
5	235171	35.5	110
5	237089	35.7	120
5	238912	35.9	130
5	240729	36.1	140
5	242208	36.3	150
5	247836	36.921	160
5	247836	36.921	170
5	247836	36.921	180
5	249346	37.1	190
5	255090	37.724	200
5	255090	37.724	210
5	255090	37.724	220
5	256692	37.9	230
5	258646	38.1	240
5	260613	38.3	250
5	266033	38.919	260
5	266033	38.919	270
5	269849	39.341	280
5	273217	39.764	290
5	273217	39.764	300
5	273217	39.764	310
5	273217	39.764	320
5	274744	39.9	330
5	276776	40.1	340
5	278727	40.3	350
5	280501	40.5	350
5	280516	40.5	360
5	282353	40.7	370
5	287065	41.321	30
5	287065	41.321	40
5	287065	41.321	50
5	289102	41.5	60
5	291397	41.7	70
5	293172	41.9	80
5	294814	42.1	90
5	299668	42.723	100
5	299668	42.723	110
5	299668	42.723	120
5	301115	42.9	130
5	306756	43.526	140
5	306756	43.526	150
5	306756	43.526	160
5	308369	43.7	170
5	311024	43.9	180
5	313101	44.1	190
5	314886	44.3	200
5	316472	44.5	210
5	318462	44.7	220
5	320251	44.9	230
5	322076	45.1	240
5	323867	45.3	250
5	325658	45.5	260
5	327439	45.7	270
5	329220	45.9	280
5	331057	46.1	290
5	332850	46.3	300
5	334615	46.5	310
5	339161	47.125	320
5	339161	47.125	330
5	339161	47.125	340
5	340762	47.3	350
5	343242	47.5	350
5	343257	47.5	360
5	345513	47.7	370
5	347304	47.9	30
5	348942	48.1	40
5	350577	48.3	50
5	352247	48.5	60
5	354446	48.7	70
5	359411	49.321	80
5	359411	49.321	90
5	359411	49.321	100
5	361026	49.5	110
5	363391	49.7	120
5	365375	49.9	130
5	367245	50.1	140
5	369036	50.3	150
5	370809	50.5	160
5	372606	50.7	170
5	374391	50.9	180
5	376216	51.1	190
5	378001	51.3	200
5	379786	51.5	210
5	381563	51.7	220
5	383358	51.9	230
5	385185	52.1	240
5	386667	52.3	250
5	388653	52.5	260
5	390361	52.7	270
5	392157	52.9	280
5	394206	53.1	290
5	395987	53.3	300
5	397577	53.5	310
5	399365	53.7	320
5	400899	53.9	330
5	402568	54.1	340
5	404590	54.3	350
5	406787	54.5	350
5	406802	54.5	360
5	408663	54.7	370
5	410452	54.9	30
5	412128	55.1	40
5	417716	55.731	50
5	417716	55.731	60
5	417716	55.731	70
5	419333	55.9	80
5	421330	56.1	90
5	423113	56.3	100
5	424884	56.5	110
5	426488	56.7	120
5	428290	56.9	130
5	430133	57.1	140
5	432136	57.3	150
5	437394	57.919	160
5	437394	57.919	170
5	437394	57.919	180
5	439018	58.1	190
5	440528	58.3	200
5	441902	58.5	210
5	443778	58.7	220
5	445548	58.9	230
5	448223	59.1	240
5	450123	59.3	250
5	452042	59.5	260
5	453854	59.7	270
5	455645	59.9	280
5	457277	60.1	290
5	459271	60.3	300
5	461068	60.5	310
5	462843	60.7	320
5	464616	60.9	330
5	466145	61.1	340
5	467609	61.3	350
5	469976	61.5	350
5	469991	61.5	360
5	471581	61.7	370
5	473067	61.9	30
5	474907	62.1	40
5	476417	62.3	50
5	478760	62.5	60
5	481002	62.7	70
5	482785	62.9	80
5	484627	63.1	90
5	490023	63.724	100
5	490023	63.724	110
5	493379	64.15	120
5	493379	64.15	130
5	493379	64.15	140
5	494583	64.3	150
5	497212	64.5	160
5	499066	64.7	170
5	500393	64.9	180
5	502024	65.1	190
5	504422	65.3	200
5	505677	65.5	210
5	507364	65.7	220
5	509845	65.9	230
5	511761	66.1	240
5	513548	66.3	250
5	515182	66.5	260
5	517092	66.7	270
5	518905	66.9	280
5	520541	67.1	290
5	522549	67.3	300
5	524326	67.5	310
5	526115	67.7	320
5	527900	67.9	330
5	529729	68.1	340
5	531510	68.3	350
5	533283	68.5	350
5	533298	68.5	360
5	534990	68.7	370
5	536924	68.9	30
5	538590	69.1	40
5	540572	69.3	50
5	542363	69.5	60
5	544148	69.7	70
5	545925	69.9	80
5	547615	70.1	90
5	549525	70.3	100
5	551340	70.5	110
5	553115	70.7	120
5	554912	70.9	130
5	556586	71.1	140
5	563124	71.937	150
5	563124	71.937	160
5	563124	71.937	170
5	563124	71.937	180
5	564546	72.1	190
5	567259	72.3	200
5	569382	72.5	210
5	576029	73.6	220
5	577441	73.83	230
5	577441	73.83	240
5	577441	73.83	250
5	577441	73.83	260
5	579721	74.061	270
5	579721	74.061	280
5	580193	74.1	290
5	582220	74.3	300
5	584051	74.5	310
5	585489	74.7	320
5	586931	74.9	330
5	588212	75.1	340
5	589552	75.3	350
5	590933	75.5	350
5	590947	75.5	360
5	592623	75.7	370
5	594265	75.9	40
5	595566	76.1	50
5	597211	76.3	60
5	598649	76.5	70
5	599780	76.7	80
5	601431	76.9	90
5	603023	77.1	100
5	606152	77.53	110
5	606152	77.53	120
5	607308	77.7	130
5	608834	77.9	140
5	610318	78.1	150
5	611756	78.3	160
5	613201	78.5	170
5	614640	78.7	180
5	616076	78.9	190
5	619253	79.331	200
5	619253	79.331	210
5	620379	79.5	220
5	621913	79.7	230
5	623359	79.9	240
5	624841	80.1	250
5	626285	80.3	260
5	627416	80.5	270
5	629057	80.7	280
5	630621	80.9	290
5	632109	81.1	300
5	633555	81.3	310
5	634985	81.5	320
5	636427	81.7	330
5	637859	81.9	340
5	639353	82.1	350
5	640787	82.3	360
5	642213	82.5	360
5	642227	82.5	370
5	643719	82.7	20
5	645163	82.9	30
5	646645	83.1	40
5	648085	83.3	50
5	649226	83.5	60
5	650865	83.7	70
5	652120	83.9	80
5	653815	84.1	90
5	655368	84.3	100
5	656811	84.5	110
5	658253	84.7	120
5	659687	84.9	130
5	661181	85.1	140
5	664100	85.536	150
5	664100	85.536	160
5	664918	85.7	170
5	666745	85.9	180
5	668510	86.1	190
5	669950	86.3	200
5	671396	86.5	210
5	672820	86.7	220
5	673959	86.9	230
5	675654	87.1	240
5	677198	87.3	250
5	678499	87.5	260
5	680070	87.7	270
5	681542	87.9	280
5	683032	88.1	290
5	684470	88.3	300
5	685906	88.5	310
5	687348	88.7	320
5	688770	88.9	330
5	690276	89.1	340
5	691718	89.3	350
5	693136	89.5	350
5	693150	89.5	360
5	695437	89.932	20
5	695437	89.932	30
5	696905	90.1	40
5	698853	90.3	50
5	700488	90.5	60
5	701935	90.7	70
5	703369	90.9	80
5	704676	91.1	90
5	706307	91.3	100
5	707295	91.5	110
5	709076	91.7	120
5	710512	91.9	130
5	712138	92.1	140
5	713595	92.3	150
5	714836	92.5	160
5	718202	92.934	170
5	718202	92.934	180
5	719342	93.1	190
5	720908	93.3	200
5	722334	93.5	210
5	723780	93.7	220
5	725220	93.9	230
5	726401	94.1	240
5	728046	94.3	250
5	729598	94.5	260
5	730731	94.7	270
5	732380	94.9	280
5	733984	95.1	290
5	735430	95.3	300
5	736870	95.5	310
5	738311	95.7	320
5	739742	95.9	330
5	741226	96.1	340
5	742670	96.3	350
5	744104	96.5	350
5	744118	96.5	360
5	745596	96.7	20
5	747048	96.9	30
5	748520	97.1	40
5	749956	97.3	50
5	751205	97.5	60
5	752848	97.7	70
5	754302	97.9	80
5	755780	98.1	90
5	757208	98.3	100
5	758349	98.5	110
5	761803	98.931	120
5	761803	98.931	130
5	762993	99.1	140
5	764372	99.3	150
5	765957	99.5	160
5	767411	99.7	170
5	768855	99.9	180
5	770333	100.1	190
5	771781	100.3	200
5	773221	100.5	210
5	774657	100.7	220
5	775912	100.9	230
5	777444	101.1	240
5	778696	101.3	250
5	780387	101.5	260
5	781947	101.7	270
5	783379	101.9	280
5	784712	102.1	290
5	786317	102.3	300
5	787763	102.5	310
5	789048	102.7	320
5	790614	102.9	330
5	791820	103.1	340
5	793131	103.3	350
5	795021	103.5	350
5	795038	103.5	360
5	796228	103.7	20
5	797884	103.9	30
5	799479	104.1	40
5	800772	104.3	50
5	802355	104.5	60
5	803618	104.7	70
5	805251	104.9	80
5	806739	105.1	90
5	808183	105.3	100
5	809619	105.5	110
5	811063	105.7	120
5	812043	105.9	130
5	813898	106.1	140
5	815461	106.3	150
5	816893	106.5	160
5	818337	106.7	170
5	821496	107.131	180
5	821496	107.131	190
5	822630	107.3	200
5	824176	107.5	210
5	825598	107.7	220
5	827054	107.9	230
5	828536	108.1	240
5	829974	108.3	250
5	831420	108.5	260
5	832856	108.7	270
5	834145	108.9	280
5	837463	109.33	290
5	837463	109.33	300
5	838613	109.5	310
5	840006	109.7	320
5	841584	109.9	330
5	842926	110.1	340
5	844531	110.3	350
5	845959	110.5	350
5	845973	110.5	360
5	847146	110.7	20
5	848801	110.9	30
5	850403	111.1	40
5	851690	111.3	50
5	854962	111.73	60
5	854962	111.73	70
5	856128	111.9	80
5	857696	112.1	90
5	859122	112.3	100
5	860568	112.5	110
5	862014	112.7	120
5	863261	112.9	130
5	864950	113.1	140
5	866231	113.3	150
5	867825	113.5	160
5	870961	113.932	170
5	870961	113.932	180
5	872141	114.1	190
5	873679	114.3	200
5	875113	114.5	210
5	876553	114.7	220
5	877987	114.9	230
5	881148	115.329	240
5	881148	115.329	250
5	882316	115.5	260
5	883681	115.7	270
5	885274	115.9	280
5	886762	116.1	290
5	889901	116.533	300
5	889901	116.533	310
5	891011	116.7	320
5	892551	116.9	330
5	893852	117.1	340
5	895499	117.3	350
5	896925	117.5	350
5	896939	117.5	360
5	898274	117.7	20
5	899653	117.9	30
5	901060	118.1	40
5	902455	118.3	50
5	903954	118.5	60
5	905718	118.7	70
5	908902	119.13	80
5	908902	119.13	90
5	910060	119.3	100
5	911588	119.5	110
5	913030	119.7	120
5	914468	119.9	130
5	915944	120.1	140
5	917083	120.3	150
5	918533	120.5	160
5	921528	120.93	170
5	921528	120.93	180
5	922894	121.1	190
5	926325	121.53	200
5	926325	121.53	210
5	927543	121.7	220
5	929067	121.9	230
5	930555	122.1	240
5	931989	122.3	250
5	933087	122.5	260
5	934868	122.7	270
5	936333	122.9	280
5	937817	123.1	290
5	939261	123.3	300
5	940699	123.5	310
5	942137	123.7	320
5	945312	124.133	330
5	945312	124.133	340
5	946422	124.3	350
5	947968	124.5	350
5	949141	124.736	10
5	949141	124.736	20
5	950394	124.9	30
5	952423	125.1	40
5	953876	125.3	50
5	955310	125.5	60
5	956762	125.7	70
5	959244	126.133	80
5	959244	126.133	90
5	960440	126.3	100
5	962631	126.5	110
5	964080	126.7	120
5	965522	126.9	130
5	967008	127.1	140
5	968448	127.3	150
5	969888	127.5	160
5	971330	127.7	170
5	972461	127.9	180
5	974160	128.1	190
5	975708	128.3	200
5	977148	128.5	210
5	978580	128.7	220
5	980034	128.9	230
5	981518	129.1	240
5	982944	129.3	250
5	984031	129.5	260
5	985140	129.7	270
5	986229	129.9	280
5	987375	130.1	290
5	988460	130.3	300
5	989551	130.5	310
5	990349	130.7	320
5	991647	130.9	330
5	992914	131.1	340
5	993993	131.3	350
5	995084	131.5	350
5	995097	131.5	360
5	996210	131.7	20
5	997307	131.9	30
5	998456	132.1	40
5	999551	132.3	50
5	1000646	132.5	60
5	1001741	132.7	70
5	1002842	132.9	80
5	1003977	133.1	90
5	1005070	133.3	100
5	1006165	133.5	110
5	1007260	133.7	120
5	1008357	133.9	130
5	1009486	134.1	140
5	1010280	134.3	150
5	1011586	134.5	160
5	1012791	134.7	170
5	1013575	134.9	180
5	1014927	135.1	190
5	1015833	135.3	200
5	1017139	135.5	210
5	1018359	135.7	220
5	1019443	135.9	230
5	1020572	136.1	240
5	1021685	136.3	250
5	1022774	136.5	260
5	1023875	136.7	270
5	1024962	136.9	280
5	1027346	137.336	290
5	1027346	137.336	300
5	1028209	137.5	310
5	1029422	137.7	320
5	1030519	137.9	330
5	1031654	138.1	340
5	1032751	138.3	350
5	1033378	138.5	350
5	1033391	138.5	360
5	1034864	138.7	30
5	1036093	138.9	40
5	1037230	139.1	50
5	1038020	139.3	60
5	1039324	139.5	70
5	1040382	139.7	80
5	1041319	139.9	90
5	1042673	140.1	100
5	1043583	140.3	110
5	1044887	140.5	120
5	1046094	140.7	130
5	1046886	140.9	140
5	1048238	141.1	150
5	1049298	141.3	160
5	1050543	141.5	170
5	1051651	141.7	180
5	1052736	141.9	190
5	1053885	142.1	200
5	1054982	142.3	210
5	1055802	142.5	220
5	1056988	142.7	230
5	1058285	142.9	240
5	1059414	143.1	250
5	1060513	143.3	260
5	1061614	143.5	270
5	1062695	143.7	280
5	1063802	143.9	290
5	1064951	144.1	300
5	1066034	144.3	310
5	1067119	144.5	320
5	1068230	144.7	330
5	1069323	144.9	340
5	1070464	145.1	350
5	1071561	145.3	360
5	1072642	145.5	360
5	1072655	145.5	370
5	1074967	145.929	20
5	1074967	145.929	30
5	1075944	146.1	40
5	1077131	146.3	50
5	1078224	146.5	60
5	1080075	146.93	70
5	1080075	146.93	80
5	1081210	147.1	90
5	1082673	147.3	100
5	1083772	147.5	110
5	1084858	147.7	120
5	1085964	147.9	130
5	1087107	148.1	140
5	1088192	148.3	150
5	1089140	148.5	160
5	1090376	148.7	170
5	1091491	148.9	180
5	1092638	149.1	190
5	1093725	149.3	200
5	1094824	149.5	210
5	1095921	149.7	220
5	1097016	149.9	230
5	1098149	150.1	240
5	1099248	150.3	250
5	1100341	150.5	260
5	1102655	150.933	270
5	1102655	150.933	280
5	1103574	151.1	290
5	1104783	151.3	300
5	1105581	151.5	310
5	1106879	151.7	320
5	1108092	151.9	330
5	1109233	152.1	340
5	1110332	152.3	350
5	1111409	152.5	350
5	1111422	152.5	360
5	1112394	152.7	20
5	1114903	153.132	30
5	1116130	153.37	40
5	1116130	153.37	50
5	1116863	153.5	60
5	1118118	153.7	70
5	1119211	153.9	80
5	1120354	154.1	90
5	1121451	154.3	100
5	1122550	154.5	110
5	1123643	154.7	120
5	1124736	154.9	130
5	1127082	155.333	140
5	1127082	155.333	150
5	1128001	155.5	160
5	1129218	155.7	170
5	1130156	155.9	180
5	1131430	156.1	190
5	1132555	156.3	200
5	1133651	156.5	210
5	1134743	156.7	220
5	1135529	156.9	230
5	1136629	157.1	240
5	1137922	157.3	250
5	1139066	157.5	260
5	1140302	157.7	270
5	1141421	157.9	280
5	1142548	158.1	290
5	1143643	158.3	300
5	1144439	158.5	310
5	1145741	158.7	320
5	1146643	158.9	330
5	1148003	159.1	340
5	1148907	159.3	350
5	1150201	159.5	350
5	1150214	159.5	360
5	1151451	159.7	20
5	1152542	159.9	30
5	1154644	160.336	40
5	1154644	160.336	50
5	1155317	160.5	60
5	1156909	160.7	70
5	1158121	160.9	80
5	1159270	161.1	90
5	1160369	161.3	100
5	1161462	161.5	110
5	1162559	161.7	120
5	1163644	161.9	130
5	1164790	162.1	140
5	1165884	162.3	150
5	1166985	162.5	160
5	1168082	162.7	170
5	1169018	162.9	180
5	1170274	163.1	190
5	1171417	163.3	200
5	1172506	163.5	210
5	1173607	163.7	220
5	1174702	163.9	230
5	1175839	164.1	240
5	1176787	164.3	250
5	1179548	164.875	260
5	1179548	164.875	270
5	1179893	164.9	280
5	1181392	165.1	290
5	1183686	165.53	300
5	1183686	165.53	310
5	1184613	165.7	320
5	1185794	165.9	330
5	1186937	166.1	340
5	1188494	166.5	340
5	1188889	166.546	350
5	1188889	166.546	360
5	1189809	166.7	30
5	1191235	166.9	40
5	1192529	167.1	50
5	1193630	167.3	60
5	1194721	167.5	70
5	1195830	167.7	80
5	1196920	167.9	90
5	1198058	168.1	100
5	1199155	168.3	110
5	1200254	168.5	120
5	1201343	168.7	130
5	1202434	168.9	140
5	1203581	169.1	150
5	1204672	169.3	160
5	1205771	169.5	170
5	1206559	169.7	180
5	1207869	169.9	190
5	1209112	170.1	200
5	1210213	170.3	210
5	1211314	170.5	220
5	1212399	170.7	230
5	1214316	171.132	240
5	1214316	171.132	250
5	1215377	171.3	260
5	1216850	171.5	270
5	1217794	171.7	280
5	1219047	171.9	290
5	1220197	172.1	300
5	1221290	172.3	310
5	1222393	172.5	320
5	1223480	172.7	330
5	1224571	172.9	340
5	1225726	173.1	350
5	1227317	173.5	350
5	1227580	173.529	360
5	1229095	173.759	20
5	1229095	173.759	30
5	1229998	173.9	40
5	1231317	174.1	50
5	1232412	174.3	60
5	1233493	174.5	70
5	1234290	174.7	80
5	1235593	174.9	90
5	1236856	175.1	100
5	1237943	175.3	110
5	1241385	177.418	150
5	1241385	177.418	150
5	1241385	177.418	150
5	1241385	177.418	150
5	1241385	177.418	160
5	1241385	177.418	170
5	1241385	177.418	180
5	1241385	177.418	190
5	1241385	177.418	200
5	1241385	177.418	210
5	1247668	179.224	220
5	1247668	179.224	230
5	1247668	179.224	240
5	1247668	179.224	250
5	1247668	179.224	260
5	1247668	179.224	270
5	1254353	179.651	280
5	1254353	179.651	290
5	1254353	179.651	300
5	1254353	179.651	310
5	1254353	179.651	320
5	1255384	179.7	330
5	1257892	179.9	340
5	1259610	180.1	350
5	1261297	180.3	360
5	1263097	180.5	360
5	1263109	180.5	370
5	1266905	180.7	380
5	1271444	180.9	390
5	1276715	181.1	400
5	1280232	181.3	410
5	1281804	181.5	420
5	1283699	181.7	430
5	1285379	181.9	440
5	1287149	182.1	450
5	1288753	182.3	460
5	1290570	182.5	470
5	1292211	182.7	480
5	1293992	182.9	490
5	1295499	183.1	500
5	1297579	183.3	510
5	1303646	183.918	520
5	1303646	183.918	530
5	1307916	184.341	540
5	1307916	184.341	550
5	1311283	184.761	560
5	1315031	185.179	570
5	1315031	185.179	580
5	1315031	185.179	590
5	1315031	185.179	600
5	1318215	185.3	610
5	1325151	185.5	620
5	1328722	185.7	630
5	1332611	185.9	640
3	5592	10.1	30
3	7499	10.3	40
3	9288	10.5	50
3	11067	10.7	60
3	14291	11.083	70
3	14528	11.1	80
3	16272	11.3	90
3	18014	11.5	100
3	19480	11.7	110
3	21244	11.9	120
3	22818	12.1	130
3	24540	12.3	140
3	26094	12.5	140
3	26109	12.5	150
3	27895	12.7	160
3	29166	12.9	70
3	31564	13.1	80
3	34640	13.3	90
3	36488	13.5	100
3	37956	13.7	110
3	39444	13.9	120
3	41846	14.1	130
3	44828	14.482	140
3	45037	14.5	150
3	47194	14.7	160
3	50540	15.084	170
3	50775	15.1	180
3	53572	15.485	190
3	53849	15.5	200
3	56180	15.7	210
3	58110	15.9	220
3	59943	16.1	230
3	61724	16.3	240
3	63511	16.5	250
3	65298	16.7	260
3	66456	16.9	270
3	70212	17.281	280
3	70521	17.3	290
3	72526	17.5	300
3	73689	17.7	310
3	75378	17.9	320
3	77603	18.1	330
3	79682	18.3	340
3	82978	18.685	350
3	84726	18.884	360
3	84967	18.9	370
3	86656	19.1	380
3	87850	19.3	390
3	89815	19.5	390
3	89830	19.5	400
3	91515	19.7	370
3	93227	19.9	50
3	95095	20.1	60
3	96977	20.3	70
3	98292	20.5	80
3	100497	20.7	90
3	103308	20.9	100
3	105090	21.1	110
3	106365	21.3	120
3	109759	21.684	130
3	109972	21.7	140
3	112477	21.9	150
3	114406	22.1	160
3	116207	22.3	170
3	117664	22.5	180
3	119457	22.7	190
3	121263	22.9	200
3	123951	23.282	210
3	124138	23.3	220
3	126874	23.5	230
3	128844	23.7	240
3	130075	23.9	250
3	131277	24.1	260
3	133804	24.3	270
3	136079	24.5	280
3	137374	24.7	290
3	139373	24.9	300
3	142933	25.284	310
3	143166	25.3	320
3	144769	25.5	330
3	146265	25.7	340
3	148637	25.9	350
3	150284	26.1	360
3	151742	26.3	370
3	153995	26.5	370
3	154010	26.5	380
3	155808	26.7	390
3	157806	26.9	30
3	159442	27.1	40
3	161440	27.3	50
3	163217	27.5	60
3	165002	27.7	70
3	166791	27.9	80
3	168616	28.1	90
3	170401	28.3	100
3	172190	28.5	110
3	173971	28.7	120
3	175245	28.9	130
3	176973	29.1	140
3	179343	29.3	150
3	181183	29.5	160
3	182988	29.7	170
3	184464	29.9	180
3	186498	30.1	190
3	188146	30.3	200
3	189614	30.5	210
3	191879	30.7	220
3	193798	30.9	230
3	195633	31.1	240
3	197408	31.3	250
3	199197	31.5	260
3	202387	31.884	270
3	202618	31.9	280
3	204592	32.1	290
3	206079	32.3	300
3	207549	32.5	310
3	211105	32.882	320
3	211424	32.9	330
3	213628	33.1	340
3	215107	33.3	350
3	217095	33.5	350
3	217111	33.5	360
3	219073	33.7	370
3	220870	33.9	30
3	222377	34.1	40
3	223852	34.3	50
3	227680	34.682	60
3	227929	34.7	70
3	229553	34.9	80
3	230771	35.1	90
3	234994	35.493	100
3	235169	35.5	110
3	237087	35.7	120
3	238910	35.9	130
3	240727	36.1	140
3	242206	36.3	150
3	243472	36.5	160
3	245784	36.7	170
3	247339	36.9	180
3	249344	37.1	190
3	251487	37.3	200
3	253127	37.5	210
3	256415	37.886	220
3	258415	38.085	230
3	258644	38.1	240
3	260611	38.3	250
3	262427	38.5	260
3	263965	38.7	270
3	265429	38.9	280
3	267479	39.1	290
3	269079	39.3	300
3	270811	39.5	310
3	272373	39.7	320
3	276545	40.082	330
3	276774	40.1	340
3	278725	40.3	350
3	280499	40.5	350
3	280514	40.5	360
3	282351	40.7	370
3	283961	40.9	30
3	285423	41.1	40
3	286573	41.3	50
3	289100	41.5	60
3	291395	41.7	70
3	293170	41.9	80
3	294812	42.1	90
3	296472	42.3	100
3	297704	42.5	110
3	299149	42.7	120
3	301113	42.9	130
3	303036	43.1	140
3	304318	43.3	150
3	306191	43.5	160
3	308367	43.7	170
3	311022	43.9	180
3	313099	44.1	190
3	314884	44.3	200
3	316470	44.5	210
3	318460	44.7	220
3	320249	44.9	230
3	322074	45.1	240
3	323865	45.3	250
3	325656	45.5	260
3	327437	45.7	270
3	329218	45.9	280
3	331055	46.1	290
3	332848	46.3	300
3	334613	46.5	310
3	336402	46.7	320
3	337608	46.9	330
3	338614	47.1	340
3	343011	47.482	350
3	343240	47.5	350
3	343255	47.5	360
3	345511	47.7	370
3	347302	47.9	30
3	350238	48.281	40
3	350575	48.3	50
3	352245	48.5	60
3	354444	48.7	70
3	356349	48.9	80
3	357921	49.1	90
3	358892	49.3	100
3	363122	49.686	110
3	363389	49.7	120
3	365373	49.9	130
3	367243	50.1	140
3	369034	50.3	150
3	370807	50.5	160
3	372604	50.7	170
3	374389	50.9	180
3	376214	51.1	190
3	377999	51.3	200
3	379784	51.5	210
3	381561	51.7	220
3	383356	51.9	230
3	385183	52.1	240
3	386665	52.3	250
3	388651	52.5	260
3	390359	52.7	270
3	392155	52.9	280
3	394204	53.1	290
3	395985	53.3	300
3	397575	53.5	310
3	400654	53.881	320
3	400897	53.9	330
3	402566	54.1	340
3	404588	54.3	350
3	406785	54.5	350
3	406800	54.5	360
3	408661	54.7	370
3	411907	55.087	30
3	413649	55.284	40
3	413892	55.3	50
3	415607	55.5	60
3	417096	55.7	70
3	419331	55.9	80
3	421328	56.1	90
3	423111	56.3	100
3	424882	56.5	110
3	426486	56.7	120
3	428288	56.9	130
3	430131	57.1	140
3	432134	57.3	150
3	433915	57.5	160
3	435449	57.7	170
3	436903	57.9	180
3	439016	58.1	190
3	441693	58.486	200
3	441900	58.5	210
3	443776	58.7	220
3	445546	58.9	230
3	449894	59.284	240
3	450121	59.3	250
3	452040	59.5	260
3	453852	59.7	270
3	455643	59.9	280
3	457275	60.1	290
3	459269	60.3	300
3	461066	60.5	310
3	462841	60.7	320
3	464614	60.9	330
3	466143	61.1	340
3	467607	61.3	350
3	469974	61.5	350
3	469989	61.5	360
3	471579	61.7	370
3	473065	61.9	30
3	474905	62.1	40
3	476415	62.3	50
3	478758	62.5	60
3	481000	62.7	70
3	482783	62.9	80
3	484625	63.1	90
3	486413	63.3	100
3	487933	63.5	110
3	489407	63.7	120
3	491409	63.9	130
3	492740	64.1	140
3	494581	64.3	150
3	497210	64.5	160
3	500196	64.888	170
3	500391	64.9	180
3	502022	65.1	190
3	504420	65.3	200
3	505675	65.5	210
3	507362	65.7	220
3	509843	65.9	230
3	511759	66.1	240
3	514959	66.486	250
3	515180	66.5	260
3	517090	66.7	270
3	518903	66.9	280
3	520539	67.1	290
3	522547	67.3	300
3	524324	67.5	310
3	526113	67.7	320
3	527898	67.9	330
3	529727	68.1	340
3	531508	68.3	350
3	533281	68.5	350
3	534755	68.684	360
3	534988	68.7	370
3	536922	68.9	30
3	538588	69.1	40
3	540570	69.3	50
3	542361	69.5	60
3	544146	69.7	70
3	547378	70.084	80
3	547613	70.1	90
3	549523	70.3	100
3	551338	70.5	110
3	553113	70.7	120
3	556347	71.083	130
3	556584	71.1	140
3	558524	71.3	150
3	560056	71.5	160
3	561535	71.7	170
3	562679	71.9	180
3	566996	72.283	190
3	567257	72.3	200
3	569381	72.5	210
3	570833	72.7	220
3	572014	72.9	230
3	573186	73.1	240
3	573997	73.3	250
3	575321	73.5	260
3	576576	73.7	270
3	578315	73.9	280
3	580192	74.1	290
3	582219	74.3	300
3	584050	74.5	310
3	585488	74.7	320
3	586930	74.9	330
3	588211	75.1	340
3	589551	75.3	350
3	590932	75.5	350
3	590946	75.5	360
3	592622	75.7	370
3	594264	75.9	40
3	595565	76.1	50
3	597210	76.3	60
3	598648	76.5	70
3	599779	76.7	80
3	601430	76.9	90
3	604110	77.284	100
3	604319	77.3	110
3	605641	77.5	120
3	607307	77.7	130
3	608833	77.9	140
3	610317	78.1	150
3	611755	78.3	160
3	613200	78.5	170
3	614639	78.7	180
3	616075	78.9	190
3	617565	79.1	200
3	618751	79.3	210
3	620378	79.5	220
3	621912	79.7	230
3	623358	79.9	240
3	624840	80.1	250
3	626284	80.3	260
3	627415	80.5	270
3	629056	80.7	280
3	630620	80.9	290
3	632108	81.1	300
3	633554	81.3	310
3	634984	81.5	320
3	636426	81.7	330
3	637858	81.9	340
3	639352	82.1	350
3	640786	82.3	360
3	642212	82.5	360
3	642226	82.5	370
3	643718	82.7	380
3	645162	82.9	30
3	646644	83.1	40
3	648084	83.3	50
3	649225	83.5	60
3	650864	83.7	70
3	652119	83.9	80
3	653814	84.1	90
3	655367	84.3	100
3	656810	84.5	110
3	658252	84.7	120
3	659686	84.9	130
3	662246	85.282	140
3	662469	85.3	150
3	663800	85.5	160
3	664917	85.7	170
3	666744	85.9	180
3	668509	86.1	190
3	669949	86.3	200
3	671395	86.5	210
3	672819	86.7	220
3	673958	86.9	230
3	675653	87.1	240
3	678291	87.484	250
3	678498	87.5	260
3	680069	87.7	270
3	681541	87.9	280
3	683031	88.1	290
3	684469	88.3	300
3	685905	88.5	310
3	687347	88.7	320
3	688769	88.9	330
3	690275	89.1	340
3	691717	89.3	350
3	693135	89.5	350
3	693149	89.5	360
3	695815	89.979	20
3	697798	90.172	30
3	697798	90.172	40
3	698852	90.3	50
3	700487	90.5	60
3	701934	90.7	70
3	703368	90.9	80
3	704675	91.1	90
3	707113	91.484	100
3	707294	91.5	110
3	710302	91.884	120
3	710511	91.9	130
3	712137	92.1	140
3	713594	92.3	150
3	714835	92.5	160
3	716286	92.7	170
3	717678	92.9	180
3	719341	93.1	190
3	720907	93.3	200
3	722333	93.5	210
3	723779	93.7	220
3	725219	93.9	230
3	726400	94.1	240
3	728045	94.3	250
3	729597	94.5	260
3	730730	94.7	270
3	732379	94.9	280
3	733983	95.1	290
3	735429	95.3	300
3	736869	95.5	310
3	738310	95.7	320
3	739741	95.9	330
3	741225	96.1	340
3	742669	96.3	350
3	744103	96.5	350
3	744117	96.5	360
3	745595	96.7	370
3	747047	96.9	30
3	748519	97.1	40
3	749955	97.3	50
3	751204	97.5	60
3	752847	97.7	70
3	754301	97.9	80
3	755779	98.1	90
3	757207	98.3	100
3	759659	98.683	110
3	759846	98.7	120
3	761289	98.9	130
3	764154	99.283	140
3	764371	99.3	150
3	765956	99.5	160
3	767410	99.7	170
3	768854	99.9	180
3	770332	100.1	190
3	771780	100.3	200
3	773220	100.5	210
3	774656	100.7	220
3	777252	101.089	230
3	777443	101.1	240
3	778695	101.3	250
3	780386	101.5	260
3	781946	101.7	270
3	784480	102.082	280
3	784711	102.1	290
3	786316	102.3	300
3	788828	102.684	310
3	789047	102.7	320
3	790613	102.9	330
3	792859	103.283	340
3	793130	103.3	350
3	795020	103.5	350
3	795037	103.5	360
3	796227	103.7	370
3	797883	103.9	30
3	800556	104.283	40
3	800771	104.3	50
3	802354	104.5	60
3	803617	104.7	70
3	805250	104.9	80
3	806738	105.1	90
3	808182	105.3	100
3	809618	105.5	110
3	811861	105.883	120
3	812042	105.9	130
3	813897	106.1	140
3	815460	106.3	150
3	816892	106.5	160
3	818336	106.7	170
3	819776	106.9	180
3	821002	107.1	190
3	822629	107.3	200
3	824175	107.5	210
3	825597	107.7	220
3	827053	107.9	230
3	828535	108.1	240
3	829973	108.3	250
3	831419	108.5	260
3	833935	108.884	270
3	834144	108.9	280
3	835764	109.1	290
3	836973	109.3	300
3	839772	109.682	310
3	840005	109.7	320
3	842700	110.082	330
3	842925	110.1	340
3	844530	110.3	350
3	845958	110.5	350
3	845972	110.5	360
3	847145	110.7	370
3	848800	110.9	30
3	851468	111.283	40
3	851689	111.3	50
3	853283	111.5	60
3	854474	111.7	70
3	856127	111.9	80
3	857695	112.1	90
3	859121	112.3	100
3	860567	112.5	110
3	862013	112.7	120
3	863260	112.9	130
3	866011	113.282	140
3	866230	113.3	150
3	867824	113.5	160
3	869275	113.7	170
3	870463	113.9	180
3	872140	114.1	190
3	873678	114.3	200
3	875112	114.5	210
3	876552	114.7	220
3	877986	114.9	230
3	879478	115.1	240
3	880653	115.3	250
3	883461	115.683	260
3	883680	115.7	270
3	885273	115.9	280
3	886761	116.1	290
3	888205	116.3	300
3	889401	116.5	310
3	891010	116.7	320
3	892550	116.9	330
3	893851	117.1	340
3	895498	117.3	350
3	896924	117.5	350
3	898056	117.684	360
3	898273	117.7	370
3	899652	117.9	30
3	901059	118.1	40
3	903772	118.483	50
3	903953	118.5	60
3	905717	118.7	70
3	907182	118.9	80
3	908416	119.1	90
3	910059	119.3	100
3	911587	119.5	110
3	913029	119.7	120
3	914467	119.9	130
3	915943	120.1	140
3	917082	120.3	150
3	918532	120.5	160
3	920297	120.7	170
3	921168	120.9	180
3	922893	121.1	190
3	924382	121.3	200
3	925775	121.5	210
3	927542	121.7	220
3	929066	121.9	230
3	930554	122.1	240
3	932783	122.482	250
3	933086	122.5	260
3	934867	122.7	270
3	936332	122.9	280
3	937816	123.1	290
3	939260	123.3	300
3	940698	123.5	310
3	942136	123.7	320
3	943578	123.9	330
3	944802	124.1	340
3	946421	124.3	350
3	947967	124.5	350
3	947981	124.5	360
3	950136	124.883	20
3	950393	124.9	30
3	952422	125.1	40
3	953875	125.3	50
3	955309	125.5	60
3	956761	125.7	70
3	958000	125.9	80
3	960098	126.284	90
3	960439	126.3	100
3	962630	126.5	110
3	964079	126.7	120
3	965521	126.9	130
3	967007	127.1	140
3	968447	127.3	150
3	969887	127.5	160
3	971329	127.7	170
3	972460	127.9	180
3	974159	128.1	190
3	975707	128.3	200
3	977147	128.5	210
3	978579	128.7	220
3	980033	128.9	230
3	981517	129.1	240
3	982943	129.3	250
3	984030	129.5	260
3	985139	129.7	270
3	986228	129.9	280
3	987374	130.1	290
3	988459	130.3	300
3	989550	130.5	310
3	990348	130.7	320
3	991646	130.9	330
3	992913	131.1	340
3	993992	131.3	350
3	995083	131.5	350
3	995096	131.5	360
3	996209	131.7	370
3	997306	131.9	30
3	998455	132.1	40
3	999550	132.3	50
3	1000645	132.5	60
3	1001740	132.7	70
3	1002841	132.9	80
3	1003976	133.1	90
3	1005069	133.3	100
3	1006164	133.5	110
3	1007259	133.7	120
3	1008356	133.9	130
3	1009485	134.1	140
3	1010279	134.3	150
3	1011585	134.5	160
3	1012790	134.7	170
3	1013574	134.9	180
3	1014926	135.1	190
3	1015832	135.3	200
3	1017138	135.5	210
3	1018358	135.7	220
3	1019442	135.9	230
3	1020571	136.1	240
3	1021684	136.3	250
3	1022773	136.5	260
3	1023874	136.7	270
3	1024961	136.9	280
3	1026102	137.1	290
3	1026939	137.3	300
3	1028208	137.5	310
3	1029421	137.7	320
3	1030518	137.9	330
3	1031653	138.1	340
3	1033243	138.482	350
3	1033377	138.5	350
3	1033390	138.5	360
3	1034863	138.7	370
3	1036092	138.9	40
3	1037229	139.1	50
3	1038019	139.3	60
3	1040193	139.682	70
3	1040381	139.7	80
3	1041318	139.9	90
3	1042672	140.1	100
3	1043582	140.3	110
3	1044886	140.5	120
3	1046093	140.7	130
3	1046885	140.9	140
3	1049105	141.282	150
3	1049297	141.3	160
3	1050542	141.5	170
3	1051650	141.7	180
3	1052735	141.9	190
3	1053884	142.1	200
3	1056183	142.536	210
3	1056183	142.536	220
3	1056987	142.7	230
3	1058284	142.9	240
3	1059413	143.1	250
3	1060512	143.3	260
3	1061613	143.5	270
3	1062694	143.7	280
3	1063801	143.9	290
3	1064950	144.1	300
3	1066033	144.3	310
3	1067118	144.5	320
3	1068229	144.7	330
3	1069322	144.9	340
3	1070463	145.1	350
3	1071560	145.3	360
3	1072641	145.5	360
3	1072654	145.5	370
3	1073767	145.7	380
3	1074602	145.9	30
3	1075943	146.1	40
3	1077130	146.3	50
3	1078223	146.5	60
3	1079308	146.7	70
3	1079836	146.9	80
3	1081209	147.1	90
3	1082672	147.3	100
3	1083771	147.5	110
3	1084857	147.7	120
3	1085963	147.9	130
3	1087106	148.1	140
3	1088965	148.483	150
3	1089139	148.5	160
3	1090375	148.7	170
3	1091490	148.9	180
3	1092637	149.1	190
3	1093724	149.3	200
3	1094823	149.5	210
3	1095920	149.7	220
3	1097015	149.9	230
3	1098148	150.1	240
3	1099247	150.3	250
3	1100340	150.5	260
3	1101433	150.7	270
3	1102276	150.9	280
3	1103573	151.1	290
3	1104782	151.3	300
3	1105580	151.5	310
3	1106878	151.7	320
3	1108091	151.9	330
3	1109232	152.1	340
3	1110331	152.3	350
3	1111408	152.5	350
3	1112217	152.683	360
3	1112393	152.7	370
3	1113637	152.9	30
3	1114530	153.1	40
3	1115562	153.3	50
3	1116862	153.5	60
3	1118117	153.7	70
3	1119210	153.9	80
3	1120353	154.1	90
3	1121450	154.3	100
3	1122549	154.5	110
3	1123642	154.7	120
3	1125280	155.085	130
3	1125416	155.1	140
3	1126590	155.3	150
3	1128000	155.5	160
3	1129989	155.884	170
3	1130155	155.9	180
3	1131429	156.1	190
3	1132554	156.3	200
3	1133650	156.5	210
3	1134742	156.7	220
3	1135528	156.9	230
3	1136628	157.1	240
3	1138893	157.484	250
3	1139065	157.5	260
3	1140301	157.7	270
3	1141420	157.9	280
3	1142547	158.1	290
3	1143642	158.3	300
3	1144438	158.5	310
3	1145740	158.7	320
3	1146642	158.9	330
3	1148002	159.1	340
3	1148906	159.3	350
3	1150200	159.5	350
3	1150213	159.5	360
3	1151450	159.7	370
3	1152541	159.9	30
3	1153688	160.1	40
3	1155148	160.482	50
3	1155316	160.5	60
3	1156908	160.7	70
3	1158120	160.9	80
3	1159269	161.1	90
3	1160368	161.3	100
3	1161461	161.5	110
3	1162558	161.7	120
3	1163643	161.9	130
3	1164789	162.1	140
3	1165883	162.3	150
3	1166984	162.5	160
3	1168849	162.89	170
3	1169017	162.9	180
3	1170273	163.1	190
3	1171416	163.3	200
3	1172505	163.5	210
3	1173606	163.7	220
3	1174701	163.9	230
3	1176614	164.285	240
3	1176786	164.3	250
3	1178004	164.5	260
3	1178865	164.7	270
3	1179892	164.9	280
3	1181391	165.1	290
3	1182486	165.3	300
3	1183319	165.5	310
3	1184612	165.7	320
3	1185793	165.9	330
3	1186936	166.1	340
3	1187716	166.3	350
3	1188493	166.5	350
3	1188506	166.5	360
3	1191044	166.882	30
3	1191234	166.9	40
3	1192528	167.1	50
3	1193629	167.3	60
3	1194720	167.5	70
3	1195829	167.7	80
3	1196919	167.9	90
3	1198057	168.1	100
3	1199154	168.3	110
3	1200253	168.5	120
3	1201342	168.7	130
3	1202433	168.9	140
3	1203580	169.1	150
3	1204671	169.3	160
3	1205770	169.5	170
3	1206558	169.7	180
3	1207868	169.9	190
3	1209111	170.1	200
3	1210212	170.3	210
3	1211313	170.5	220
3	1212398	170.7	230
3	1213489	170.9	240
3	1214057	171.1	250
3	1215376	171.3	260
3	1217617	171.682	270
3	1217793	171.7	280
3	1219046	171.9	290
3	1220196	172.1	300
3	1221289	172.3	310
3	1222392	172.5	320
3	1223479	172.7	330
3	1224570	172.9	340
3	1225725	173.1	350
3	1226811	173.3	360
3	1227316	173.5	360
3	1227329	173.5	370
3	1228442	173.7	380
3	1229997	173.9	40
3	1231316	174.1	50
3	1232411	174.3	60
3	1233492	174.5	70
3	1234289	174.7	80
3	1235592	174.9	90
3	1236855	175.1	100
3	1237942	175.3	110
3	1238706	175.5	120
3	1239183	175.7	130
3	1239619	175.9	140
3	1240089	176.1	150
3	1243764	177.907	150
3	1243967	178.098	150
3	1244211	178.28	150
3	1244486	178.464	150
3	1244789	178.651	160
3	1244789	178.651	170
3	1244789	178.651	180
3	1244789	178.651	190
3	1244789	178.651	200
3	1244789	178.651	210
3	1248547	179.268	220
3	1248547	179.268	230
3	1248547	179.268	240
3	1248547	179.268	250
3	1248547	179.268	260
3	1248547	179.268	270
3	1248547	179.268	280
3	1252024	179.452	290
3	1252024	179.452	300
3	1252024	179.452	310
3	1253075	179.5	320
3	1255383	179.7	330
3	1257891	179.9	340
3	1259609	180.1	350
3	1261296	180.3	360
3	1263096	180.5	360
3	1263108	180.5	370
3	1266904	180.7	380
3	1276538	181.085	390
3	1276714	181.1	400
3	1281614	181.482	410
3	1281803	181.5	420
3	1283698	181.7	430
3	1285378	181.9	440
3	1287148	182.1	450
3	1288752	182.3	460
3	1290569	182.5	470
3	1292210	182.7	480
3	1293991	182.9	490
3	1295498	183.1	500
3	1297578	183.3	510
3	1299584	183.5	520
3	1301575	183.7	530
3	1303238	183.9	540
3	1305666	184.1	550
3	1311565	184.807	560
3	1315733	185.224	570
3	1321537	185.405	580
3	1321537	185.405	590
3	1321537	185.405	600
3	1321537	185.405	610
3	1325150	185.5	620
3	1328721	185.7	630
3	1332610	185.9	640
3	1334515	186.1	650
3	1335727	186.3	660
3	1336857	186.5	310
3	1337973	186.7	320
3	1339104	186.9	330
3	1340741	187.5	330
3	1346186	190.4	140
3	1346186	190.4	150
3	1346186	190.4	160
3	1346186	190.4	170
3	1357396	190.792	180
3	1357396	190.792	190
3	1357396	190.792	200
3	1357396	190.792	210
3	1357396	190.792	220
3	1368912	191.34	230
3	1372068	191.797	240
3	1372068	191.797	250
3	1372068	191.797	260
3	1372068	191.797	270
3	1375595	192.186	280
3	1375595	192.186	290
3	1375595	192.186	300
3	1375595	192.186	310
3	1375595	192.186	320
3	1375595	192.186	330
3	1375595	192.186	340
3	1375595	192.186	350
3	1375595	192.186	360
3	1375595	192.186	370
3	1381297	192.576	300
3	1381297	192.576	310
3	1381297	192.576	320
3	1381297	192.576	330
3	1382448	192.7	340
3	1384042	192.9	350
3	1385242	193.1	360
3	1386880	193.3	370
3	1391054	193.892	330
3	1391054	193.892	340
3	1391329	193.9	350
3	1392833	194.1	360
3	1394226	194.3	370
3	1395597	194.5	370
3	1395608	194.5	380
3	1398699	195.089	130
3	1398699	195.089	140
3	1398999	195.1	150
3	1400908	195.3	160
3	1405828	195.897	170
3	1405828	195.897	180
3	1406085	195.9	190
3	1407853	196.1	200
3	1411065	196.688	210
3	1411065	196.688	220
3	1411356	196.7	230
3	1413294	196.9	240
3	1415213	197.1	250
3	1416656	197.3	260
3	1418098	197.5	270
3	1419538	197.7	280
15	1244472	178.425	150
15	1244786	178.65	150
15	1246997	178.871	150
15	1247376	179.092	150
15	1250141	179.32	160
15	1253648	179.549	170
15	1256634	179.775	180
15	1258813	179.998	190
15	1260624	180.218	200
15	1262410	180.441	210
15	1262410	180.441	220
15	1264530	180.662	230
15	1264530	180.662	240
15	1264530	180.662	250
15	1264530	180.662	260
15	1264530	180.662	270
15	1264530	180.662	280
15	1264530	180.662	290
15	1264530	180.662	300
15	1264530	180.662	310
15	1264530	180.662	320
15	1264530	180.662	330
15	1264530	180.662	340
15	1264530	180.662	350
15	1264530	180.662	360
15	1264530	180.662	370
15	1266906	180.7	380
15	1271445	180.9	390
15	1276716	181.1	400
15	1280233	181.3	410
15	1281805	181.5	420
15	1283700	181.7	430
15	1285380	181.9	440
15	1287150	182.1	450
15	1288754	182.3	460
15	1290571	182.5	470
15	1292212	182.7	480
15	1293993	182.9	490
15	1295500	183.1	500
15	1297580	183.3	510
15	1299586	183.5	520
15	1303931	183.923	530
15	1303931	183.923	540
15	1305668	184.1	550
15	1307488	184.3	560
15	1309373	184.5	570
15	1310900	184.7	580
15	1312715	184.9	590
15	1314571	185.1	600
15	1318202	185.3	600
15	1318216	185.3	610
15	1325152	185.5	620
15	1328723	185.7	630
15	1332612	185.9	640
15	1350719	190.589	90
15	1350719	190.589	100
15	1350719	190.589	110
15	1350719	190.589	120
15	1350719	190.589	130
15	1350719	190.589	140
15	1360478	190.978	150
15	1360478	190.978	160
15	1360478	190.978	170
15	1360948	190.995	180
15	1360948	190.995	190
15	1360948	190.995	200
15	1360948	190.995	210
15	1360948	190.995	220
15	1360948	190.995	230
15	1360948	190.995	240
15	1360948	190.995	250
15	1360948	190.995	260
15	1360948	190.995	270
15	1360948	190.995	280
15	1360948	190.995	290
15	1360948	190.995	300
15	1360948	190.995	310
15	1360948	190.995	320
15	1360948	190.995	330
15	1369466	191.488	340
15	1369466	191.488	350
15	1369758	191.5	360
15	1371302	191.7	370
15	1373050	191.9	380
15	1374670	192.1	390
15	1378132	192.3	390
15	1378145	192.3	400
15	1380508	192.5	330
15	1382449	192.7	340
15	1384043	192.9	350
15	1385243	193.1	360
15	1386881	193.3	320
15	1388442	193.5	330
15	1389952	193.7	340
15	1391330	193.9	350
15	1395419	194.489	360
15	1397749	194.878	110
15	1400217	195.266	120
15	1400475	195.293	130
15	1400475	195.293	140
15	1400475	195.293	150
15	1400909	195.3	160
15	1403393	195.5	170
15	1404714	195.7	180
15	1406086	195.9	190
15	1407854	196.1	200
15	1409364	196.3	210
15	1410295	196.5	220
15	1411357	196.7	230
15	1413295	196.9	240
15	1415214	197.1	250
15	1416657	197.3	260
15	1418099	197.5	270
15	1419539	197.7	280
15	1420730	197.9	290
15	1422028	198.1	300
15	1423263	198.3	310
15	1424084	198.5	320
15	1424603	198.7	330
15	1425424	199.3	330
15	1426550	200.741	40
15	1426550	200.741	50
15	1426550	200.741	60
15	1426550	200.741	70
15	1426550	200.741	80
15	1426550	200.741	90
15	1428062	200.885	100
15	1428062	200.885	110
15	1428062	200.885	120
15	1428062	200.885	130
15	1428649	200.9	140
15	1431947	201.1	150
15	1436933	201.3	160
15	1441032	201.5	170
15	1442155	201.7	180
15	1443246	201.9	190
15	1444389	202.1	200
15	1445211	202.3	210
15	1446319	202.5	220
15	1447686	202.7	230
15	1448789	202.9	240
15	1449684	203.1	250
15	1450905	203.3	260
15	1452146	203.5	270
15	1453906	203.843	280
15	1454197	203.9	290
15	1455214	204.1	300
15	1456320	204.3	310
15	1457685	204.5	320
15	1458780	204.7	330
15	1459873	204.9	340
15	1461487	205.25	350
15	1461720	205.3	360
15	1463232	205.5	370
15	1464335	205.7	380
15	1465424	205.9	390
15	1466288	206.1	400
15	1467386	206.3	400
15	1467398	206.3	410
15	1468791	206.5	420
15	1469882	206.7	430
15	1470983	206.9	440
15	1471883	207.1	450
15	1473110	207.3	60
15	1474337	207.5	70
15	1475194	207.7	80
15	1476419	207.9	90
15	1477696	208.1	100
15	1478793	208.3	110
15	1479617	208.5	120
15	1480717	208.7	130
15	1482092	208.9	140
15	1483240	209.1	150
15	1484330	209.3	160
15	1485421	209.5	170
vector 18 FastSMRModel.logicComputer[0].node[10] QdLengthVector:vector ETV
attr source QdLength
attr title "Qd Length, vector"
vector 19 FastSMRModel.logicComputer[0].node[9] QdLengthVector:vector ETV
attr source QdLength
attr title "Qd Length, vector"
vector 20 FastSMRModel.logicComputer[0].node[8] QdLengthVector:vector ETV
attr source QdLength
attr title "Qd Length, vector"
17	1250777	179.36	150
17	1256829	179.781	150
17	1260552	180.206	150
17	1264347	180.63	150
17	1276059	181.051	160
17	1281477	181.474	170
17	1285221	181.893	180
17	1289381	182.312	190
17	1293014	182.73	200
17	1296465	183.154	210
17	1296465	183.154	220
17	1300554	183.579	230
17	1300554	183.579	240
17	1300554	183.579	250
17	1300554	183.579	260
17	1304645	183.999	270
17	1304645	183.999	280
17	1308426	184.419	290
17	1308426	184.419	300
17	1308426	184.419	310
17	1308426	184.419	320
17	1311796	184.839	330
17	1311796	184.839	340
17	1311796	184.839	350
17	1311796	184.839	360
17	1316034	185.26	370
17	1316034	185.26	380
17	1316034	185.26	390
17	1316034	185.26	400
17	1316034	185.26	410
17	1316034	185.26	420
17	1316034	185.26	430
17	1316034	185.26	440
17	1316034	185.26	450
17	1316034	185.26	460
17	1316034	185.26	470
17	1316034	185.26	480
17	1316034	185.26	490
17	1316034	185.26	500
17	1316034	185.26	510
17	1316034	185.26	520
17	1327410	185.679	530
17	1327410	185.679	540
17	1327410	185.679	550
17	1327410	185.679	560
17	1327410	185.679	570
17	1327410	185.679	580
17	1327410	185.679	590
17	1327410	185.679	600
17	1327410	185.679	610
17	1327410	185.679	620
17	1328725	185.7	630
17	1332614	185.9	640
17	1334504	186.1	640
17	1334518	186.1	650
17	1335730	186.3	300
17	1336860	186.5	310
17	1337976	186.7	320
17	1339107	186.9	330
17	1342989	190.1	140
17	1342989	190.1	150
17	1342989	190.1	160
17	1347179	190.44	170
17	1347179	190.44	180
17	1347179	190.44	190
17	1347179	190.44	200
17	1347179	190.44	210
17	1347179	190.44	220
17	1347179	190.44	230
17	1347179	190.44	240
17	1347179	190.44	250
17	1347179	190.44	260
17	1347179	190.44	270
17	1347179	190.44	280
17	1347179	190.44	290
17	1347179	190.44	300
17	1349417	190.5	310
17	1363530	191.039	320
17	1363530	191.039	330
17	1364744	191.1	340
17	1368454	191.3	350
17	1369760	191.5	360
17	1374278	192.035	370
17	1374278	192.035	380
17	1374672	192.1	390
17	1378147	192.3	400
17	1380510	192.5	330
17	1384831	193.039	340
17	1384831	193.039	350
17	1385231	193.1	350
17	1387991	193.439	310
17	1387991	193.439	320
17	1388444	193.5	330
17	1389954	193.7	340
17	1391332	193.9	350
17	1392836	194.1	360
17	1394229	194.3	370
17	1395611	194.5	380
17	1396915	194.7	130
17	1399834	195.237	140
17	1399834	195.237	150
17	1400911	195.3	160
17	1403395	195.5	170
17	1404716	195.7	180
17	1406088	195.9	190
17	1407856	196.1	200
17	1409366	196.3	210
17	1410297	196.5	220
[...]
42	7001456	997.7	300
42	7003516	997.9	310
42	7005211	998.1	320
42	7007169	998.3	330
42	7008785	998.5	340
42	7010500	998.7	350
42	7012324	998.9	360
42	7014174	999.1	300
42	7015920	999.3	310
42	7017745	999.5	320
42	7019894	999.7	330
42	7021773	999.9	340
42	7026242	1000.387	350
42	7026242	1000.387	360
42	7027023	1000.5	370
42	7029060	1000.7	170
42	7030845	1000.9	180
42	7032670	1001.1	190
42	7034175	1001.3	200
42	7036127	1001.5	210
42	7038049	1001.7	220
42	7041694	1002.184	230
42	7041694	1002.184	240
42	7042670	1002.3	250
42	7045197	1002.5	260
42	7049679	1002.982	270
42	7049679	1002.982	280
42	7050524	1003.1	290
42	7052553	1003.3	300
42	7054330	1003.5	310
42	7056125	1003.7	320
42	7060521	1004.181	330
42	7060521	1004.181	340
42	7061316	1004.3	350
42	7063063	1004.5	350
42	7063074	1004.5	360
42	7065032	1004.7	300
42	7066937	1004.9	310
42	7068171	1005.1	320
42	7069782	1005.3	330
42	7071181	1005.5	340
42	7072510	1005.7	350
42	7074125	1005.9	360
42	7075740	1006.1	370
42	7077182	1006.3	380
42	7078620	1006.5	390
42	7079801	1006.7	400
42	7081370	1006.9	410
42	7082996	1007.1	420
42	7084439	1007.3	430
42	7085910	1007.5	370
42	7087200	1007.7	170
42	7090820	1008.184	180
42	7092301	1008.468	190
42	7092301	1008.468	200
42	7092600	1008.5	210
42	7094562	1008.7	220
42	7095881	1008.9	230
42	7099616	1009.383	240
42	7099616	1009.383	250
42	7100315	1009.5	260
42	7101839	1009.7	270
42	7103441	1009.9	280
42	7104927	1010.1	290
42	7107619	1010.585	300
42	7107619	1010.585	310
42	7108420	1010.7	320
42	7110456	1010.9	330
42	7112235	1011.1	340
42	7113430	1011.3	350
42	7114987	1011.5	350
42	7114998	1011.5	360
42	7116591	1011.7	230
42	7118027	1011.9	240
42	7119262	1012.1	250
42	7120609	1012.3	260
42	7122291	1012.5	270
42	7123877	1012.7	280
42	7125319	1012.9	290
42	7126801	1013.1	300
42	7128241	1013.3	310
42	7129681	1013.5	320
42	7131123	1013.7	330
42	7132557	1013.9	340
42	7134053	1014.1	350
42	7135083	1014.3	360
42	7136567	1014.5	370
42	7138318	1014.7	170
42	7139875	1014.9	180
42	7141118	1015.1	190
42	7142687	1015.3	200
42	7143868	1015.5	210
42	7145601	1015.7	220
42	7147180	1015.9	230
42	7149946	1016.382	240
42	7151876	1016.668	250
42	7153775	1016.952	260
42	7156292	1017.238	270
42	7158621	1017.526	280
42	7158621	1017.526	290
42	7160510	1017.811	300
42	7160510	1017.811	310
42	7160510	1017.811	320
42	7161112	1017.9	330
42	7163118	1018.1	340
42	7164849	1018.3	350
42	7166277	1018.5	350
42	7166288	1018.5	360
42	7167743	1018.7	240
42	7168928	1018.9	250
42	7170549	1019.1	260
42	7172123	1019.3	270
42	7173559	1019.5	280
42	7174721	1019.7	290
42	7176338	1019.9	300
45	6754977	972.414	140
45	6755454	972.588	140
45	6755877	972.763	140
45	6756146	972.934	140
45	6756536	973.126	140
45	6757321	973.303	140
45	6758139	973.473	140
45	6758906	973.647	140
45	6759919	973.819	140
45	6760678	973.99	140
45	6761559	974.161	140
45	6762414	974.336	140
45	6763280	974.507	140
45	6763957	974.679	140
45	6764959	974.859	150
45	6766282	975.031	160
45	6767570	975.201	170
45	6768949	975.375	180
45	6770322	975.547	190
45	6770322	975.547	200
45	6770322	975.547	210
45	6770322	975.547	220
45	6770322	975.547	230
45	6770322	975.547	240
45	6770322	975.547	250
45	6770322	975.547	260
45	6770322	975.547	270
45	6770322	975.547	280
45	6770322	975.547	290
45	6770322	975.547	300
45	6770322	975.547	310
45	6770322	975.547	320
45	6770322	975.547	330
45	6770322	975.547	340
45	6770322	975.547	350
45	6770322	975.547	360
45	6775915	975.7	370
45	6778587	975.9	380
45	6780063	976.1	390
45	6781846	976.3	400
45	6785192	976.5	410
45	6793793	976.7	420
45	6801314	976.9	430
45	6805696	977.1	440
45	6807801	977.3	450
45	6809686	977.5	460
45	6814743	977.7	470
45	6819107	977.9	480
45	6822590	978.1	490
45	6826246	978.3	500
45	6828341	978.5	510
45	6830130	978.7	520
45	6831909	978.9	530
45	6833492	979.1	540
45	6835317	979.3	540
45	6835332	979.3	550
45	6837115	979.5	160
45	6839110	979.7	170
45	6842179	980.075	180
45	6842465	980.1	190
45	6844410	980.3	200
45	6846332	980.5	210
45	6848012	980.7	220
45	6849926	980.9	230
45	6851895	981.1	240
45	6853682	981.3	250
45	6855465	981.5	260
45	6856956	981.7	270
45	6858949	981.9	280
45	6860884	982.1	290
45	6862663	982.3	300
45	6864444	982.5	310
45	6865977	982.7	320
45	6869217	983.079	330
45	6869443	983.1	340
45	6871587	983.3	350
45	6873233	983.5	360
45	6874949	983.7	300
45	6878312	984.076	310
45	6880360	984.273	320
45	6880630	984.3	330
45	6882587	984.5	340
45	6884372	984.7	350
45	6886156	984.9	360
45	6889108	985.274	300
45	6889362	985.3	310
45	6891472	985.5	320
45	6893380	985.7	330
45	6895169	985.9	340
45	6897002	986.1	350
45	6898517	986.3	350
45	6898532	986.3	360
45	6902036	986.671	160
45	6903596	986.87	170
45	6905578	987.073	180
45	6905808	987.1	190
45	6907651	987.3	200
45	6909035	987.5	210
45	6910620	987.7	220
45	6914786	988.079	230
45	6915012	988.1	240
45	6916726	988.3	250
45	6918636	988.5	260
45	6920563	988.7	270
45	6922097	988.9	280
45	6923829	989.1	290
45	6927152	989.483	300
45	6927420	989.5	310
45	6929624	989.7	320
45	6931423	989.9	330
45	6933254	990.1	340
45	6936420	990.471	350
45	6936671	990.5	360
45	6938628	990.7	300
45	6939884	990.9	310
45	6941725	991.1	320
45	6943975	991.3	330
45	6945862	991.5	340
45	6947641	991.7	350
45	6949435	991.9	360
45	6951292	992.1	300
45	6953069	992.3	310
45	6954846	992.5	320
45	6956645	992.7	330
45	6959849	993.071	340
45	6960107	993.1	350
45	6962044	993.3	350
45	6962059	993.3	360
45	6963618	993.5	160
45	6965465	993.7	170
45	6967206	993.9	180
45	6969216	994.1	190
45	6970832	994.3	200
45	6975228	994.867	210
45	6975228	994.867	220
45	6975673	994.9	230
45	6980563	995.48	240
45	6980563	995.48	250
45	6981919	995.671	260
45	6982404	995.7	270
45	6985377	995.9	280
45	6987184	996.1	290
45	6989134	996.3	300
45	6991046	996.5	310
45	6992578	996.7	320
45	6994490	996.9	330
45	6996461	997.1	340
45	7000561	997.572	350
45	7000561	997.572	360
45	7001460	997.7	300
45	7003520	997.9	310
45	7005215	998.1	320
45	7007173	998.3	330
45	7008789	998.5	340
45	7010504	998.7	350
45	7012328	998.9	360
45	7015617	999.274	300
45	7015924	999.3	310
45	7017749	999.5	320
45	7019898	999.7	330
45	7023202	1000.072	340
45	7023460	1000.1	350
45	7025137	1000.3	350
45	7025152	1000.3	360
45	7027027	1000.5	160
45	7029064	1000.7	170
45	7030849	1000.9	180
45	7032674	1001.1	190
45	7034179	1001.3	200
45	7036131	1001.5	210
45	7038053	1001.7	220
45	7039556	1001.9	230
45	7041049	1002.1	240
45	7042674	1002.3	250
45	7045201	1002.5	260
45	7046837	1002.7	270
45	7048499	1002.9	280
45	7050528	1003.1	290
45	7052557	1003.3	300
45	7054334	1003.5	310
45	7056129	1003.7	320
45	7057904	1003.9	330
45	7059479	1004.1	340
45	7061320	1004.3	350
45	7063078	1004.5	360
45	7065036	1004.7	300
45	7066940	1004.9	310
45	7068174	1005.1	320
45	7070953	1005.472	330
45	7071184	1005.5	340
45	7072513	1005.7	350
45	7074128	1005.9	360
45	7075743	1006.1	370
45	7077185	1006.3	380
45	7078623	1006.5	390
45	7079804	1006.7	400
45	7081373	1006.9	410
45	7082999	1007.1	420
45	7084428	1007.3	420
45	7084442	1007.3	430
45	7086972	1007.672	160
45	7087203	1007.7	170
45	7088805	1007.9	180
45	7090027	1008.1	190
45	7091354	1008.3	200
45	7092603	1008.5	210
45	7094565	1008.7	220
45	7095884	1008.9	230
45	7097497	1009.1	240
45	7098825	1009.3	250
45	7101609	1009.67	260
45	7101842	1009.7	270
45	7103444	1009.9	280
45	7104930	1010.1	290
45	7108013	1010.669	300
45	7108013	1010.669	310
45	7110106	1010.872	320
45	7110459	1010.9	330
45	7112238	1011.1	340
45	7113433	1011.3	350
45	7115001	1011.5	360
45	7116594	1011.7	230
45	7118030	1011.9	240
45	7119265	1012.1	250
45	7120612	1012.3	260
45	7122294	1012.5	270
45	7123880	1012.7	280
45	7125322	1012.9	290
45	7126804	1013.1	300
45	7128244	1013.3	310
45	7129684	1013.5	320
45	7131126	1013.7	330
45	7132560	1013.9	340
45	7134890	1014.272	350
45	7135072	1014.3	350
45	7135086	1014.3	360
45	7136570	1014.5	160
45	7138321	1014.7	170
45	7139878	1014.9	180
45	7141121	1015.1	190
45	7143673	1015.471	200
45	7143871	1015.5	210
45	7145604	1015.7	220
45	7147183	1015.9	230
45	7148380	1016.1	240
45	7149497	1016.3	250
45	7150661	1016.5	260
45	7152031	1016.7	270
45	7153256	1016.9	280
45	7154895	1017.1	290
45	7156721	1017.3	300
45	7158048	1017.5	310
45	7159675	1017.7	320
45	7162791	1018.071	330
45	7163121	1018.1	340
45	7164852	1018.3	350
45	7166291	1018.5	360
45	7167746	1018.7	240
45	7168931	1018.9	250
45	7170552	1019.1	260
45	7172126	1019.3	270
45	7173562	1019.5	280
45	7174724	1019.7	290
45	7176341	1019.9	300
46	6755002	972.438	140
46	6755610	972.662	140
46	6756015	972.885	140
46	6756510	973.108	140
46	6757366	973.335	140
46	6758418	973.558	140
46	6759704	973.784	140
46	6760785	974.006	140
46	6761827	974.231	140
46	6762897	974.462	140
46	6763993	974.684	140
46	6765560	974.911	140
46	6767239	975.136	140
46	6768882	975.361	140
46	6773361	975.584	150
46	6777971	975.806	160
46	6779696	976.039	170
46	6781507	976.264	180
46	6783803	976.489	190
46	6783803	976.489	200
46	6783803	976.489	210
46	6783803	976.489	220
46	6783803	976.489	230
46	6783803	976.489	240
46	6783803	976.489	250
46	6783803	976.489	260
46	6783803	976.489	270
46	6783803	976.489	280
46	6783803	976.489	290
46	6794694	976.712	300
46	6794694	976.712	310
46	6794694	976.712	320
46	6794694	976.712	330
46	6794694	976.712	340
46	6794694	976.712	350
46	6794694	976.712	360
46	6794694	976.712	370
46	6794694	976.712	380
46	6794694	976.712	390
46	6794694	976.712	400
46	6800862	976.878	410
46	6800862	976.878	420
46	6801313	976.9	430
46	6805695	977.1	440
46	6807800	977.3	450
46	6809685	977.5	460
46	6814742	977.7	470
46	6819106	977.9	480
46	6822589	978.1	490
46	6826245	978.3	500
46	6828340	978.5	510
46	6830129	978.7	520
46	6831908	978.9	530
46	6833491	979.1	540
46	6835316	979.3	540
46	6835331	979.3	550
46	6837114	979.5	160
46	6839109	979.7	170
46	6840730	979.9	180
46	6845093	980.323	190
46	6845093	980.323	200
46	6848688	980.724	210
46	6848688	980.724	220
46	6849925	980.9	230
46	6851894	981.1	240
46	6853681	981.3	250
46	6855464	981.5	260
46	6856955	981.7	270
46	6858948	981.9	280
46	6860883	982.1	290
46	6862662	982.3	300
46	6864443	982.5	310
46	6865976	982.7	320
46	6867817	982.9	330
46	6869442	983.1	340
46	6873916	983.523	350
46	6875928	983.75	290
46	6877646	983.975	300
46	6877646	983.975	310
46	6878628	984.1	320
46	6880629	984.3	330
46	6882586	984.5	340
46	6884371	984.7	350
46	6886155	984.9	360
46	6888002	985.1	300
46	6889361	985.3	310
46	6891471	985.5	320
46	6893379	985.7	330
46	6895168	985.9	340
46	6897001	986.1	350
46	6898516	986.3	350
46	6898531	986.3	360
46	6900406	986.5	160
46	6904413	986.925	170
46	6904413	986.925	180
46	6905807	987.1	190
46	6907650	987.3	200
46	6909034	987.5	210
46	6910619	987.7	220
46	6913010	987.9	230
46	6917489	988.331	240
46	6917489	988.331	250
46	6918635	988.5	260
46	6922774	988.924	270
46	6924676	989.147	280
46	6924676	989.147	290
46	6925609	989.3	300
46	6927419	989.5	310
46	6929623	989.7	320
46	6931422	989.9	330
46	6933253	990.1	340
46	6935042	990.3	350
46	6936670	990.5	360
46	6940286	990.923	300
46	6940286	990.923	310
46	6941724	991.1	320
46	6943974	991.3	330
46	6945861	991.5	340
46	6947640	991.7	350
46	6949434	991.9	360
46	6951291	992.1	300
46	6953068	992.3	310
46	6954845	992.5	320
46	6956644	992.7	330
46	6958423	992.9	340
46	6960106	993.1	350
46	6962043	993.3	350
46	6962058	993.3	360
46	6963617	993.5	160
46	6965464	993.7	170
46	6967205	993.9	180
46	6969215	994.1	190
46	6970831	994.3	200
46	6974984	994.863	210
46	6974984	994.863	220
46	6975672	994.9	230
46	6978363	995.1	240
46	6979597	995.3	250
46	6980877	995.5	260
46	6982403	995.7	270
46	6985376	995.9	280
46	6987183	996.1	290
46	6989133	996.3	300
46	6993309	996.727	310
46	6993309	996.727	320
46	6994489	996.9	330
46	6996460	997.1	340
46	6997959	997.3	350
46	7002156	997.722	290
46	7002156	997.722	300
46	7003519	997.9	310
46	7005214	998.1	320
46	7007172	998.3	330
46	7008788	998.5	340
46	7010503	998.7	350
46	7012327	998.9	360
46	7014177	999.1	300
46	7015923	999.3	310
46	7017748	999.5	320
46	7019897	999.7	330
46	7021776	999.9	340
46	7023459	1000.1	350
46	7025136	1000.3	350
46	7025151	1000.3	360
46	7027026	1000.5	160
46	7029063	1000.7	170
46	7030848	1000.9	180
46	7032673	1001.1	190
46	7034178	1001.3	200
46	7036130	1001.5	210
46	7038052	1001.7	220
46	7039555	1001.9	230
46	7041048	1002.1	240
46	7042673	1002.3	250
46	7047403	1002.724	260
46	7047403	1002.724	270
46	7048498	1002.9	280
46	7050527	1003.1	290
46	7052556	1003.3	300
46	7054333	1003.5	310
46	7056128	1003.7	320
46	7057903	1003.9	330
46	7059478	1004.1	340
46	7061319	1004.3	350
46	7063077	1004.5	360
46	7065035	1004.7	300
46	7066939	1004.9	310
46	7068173	1005.1	320
46	7069784	1005.3	330
46	7071183	1005.5	340
46	7072512	1005.7	350
46	7074127	1005.9	360
46	7075742	1006.1	370
46	7077184	1006.3	380
46	7080339	1006.723	390
46	7080339	1006.723	400
46	7081372	1006.9	410
46	7082998	1007.1	420
46	7084427	1007.3	420
46	7084441	1007.3	430
46	7085912	1007.5	160
46	7087202	1007.7	170
46	7088804	1007.9	180
46	7090026	1008.1	190
46	7091353	1008.3	200
46	7092602	1008.5	210
46	7096418	1008.924	220
46	7096418	1008.924	230
46	7097496	1009.1	240
46	7098824	1009.3	250
46	7100317	1009.5	260
46	7101841	1009.7	270
46	7103443	1009.9	280
46	7104929	1010.1	290
46	7106367	1010.3	300
46	7107248	1010.5	310
46	7108422	1010.7	320
46	7110458	1010.9	330
46	7113966	1011.322	340
46	7113966	1011.322	350
46	7115000	1011.5	360
46	7116593	1011.7	230
46	7119817	1012.127	240
46	7121365	1012.352	250
46	7121365	1012.352	260
46	7122293	1012.5	270
46	7123879	1012.7	280
46	7125321	1012.9	290
46	7126803	1013.1	300
46	7128243	1013.3	310
46	7129683	1013.5	320
46	7131125	1013.7	330
46	7132559	1013.9	340
46	7135071	1014.3	340
46	7135517	1014.322	350
46	7135517	1014.322	360
46	7136569	1014.5	160
46	7138320	1014.7	170
46	7141678	1015.128	180
46	7141678	1015.128	190
46	7144400	1015.522	200
46	7144400	1015.522	210
46	7145603	1015.7	220
46	7147182	1015.9	230
46	7148379	1016.1	240
46	7152516	1016.749	250
46	7154250	1017.033	260
46	7154250	1017.033	270
46	7154250	1017.033	280
46	7154894	1017.1	290
46	7156720	1017.3	300
46	7158047	1017.5	310
46	7159674	1017.7	320
46	7161114	1017.9	330
46	7163120	1018.1	340
46	7164851	1018.3	350
46	7166290	1018.5	360
46	7169488	1018.929	240
46	7169488	1018.929	250
46	7170551	1019.1	260
46	7172125	1019.3	270
46	7173561	1019.5	280
46	7174723	1019.7	290
46	7176340	1019.9	300
47	6755048	972.449	140
47	6755835	972.732	140
47	6756354	973.014	140
47	6757159	973.295	140
47	6758470	973.577	140
47	6760051	973.859	140
47	6761519	974.151	140
47	6762792	974.433	140
47	6764358	974.72	140
47	6766095	975.002	140
47	6768229	975.289	140
47	6772812	975.572	140
47	6778372	975.854	140
47	6780432	976.137	140
47	6783155	976.419	150
47	6793983	976.701	160
47	6803908	976.982	170
47	6807519	977.266	180
47	6810432	977.551	190
47	6810432	977.551	200
47	6810432	977.551	210
47	6810432	977.551	220
47	6810432	977.551	230
47	6810432	977.551	240
47	6810432	977.551	250
47	6810432	977.551	260
47	6810432	977.551	270
47	6810432	977.551	280
47	6810432	977.551	290
47	6810432	977.551	300
47	6810432	977.551	310
47	6810432	977.551	320
47	6817154	977.837	330
47	6817154	977.837	340
47	6817154	977.837	350
47	6817154	977.837	360
47	6817154	977.837	370
47	6817154	977.837	380
47	6817154	977.837	390
47	6817154	977.837	400
47	6817154	977.837	410
47	6817154	977.837	420
47	6823401	978.128	430
47	6823401	978.128	440
47	6823401	978.128	450
47	6823401	978.128	460
47	6823401	978.128	470
47	6823401	978.128	480
47	6823401	978.128	490
47	6826244	978.3	500
47	6828339	978.5	510
47	6830128	978.7	520
47	6831907	978.9	530
47	6833490	979.1	540
47	6835315	979.3	540
47	6835330	979.3	550
47	6837113	979.5	560
47	6839108	979.7	170
47	6840729	979.9	180
47	6842463	980.1	190
47	6844408	980.3	200
47	6846330	980.5	210
47	6848010	980.7	220
47	6849924	980.9	230
47	6851893	981.1	240
47	6853680	981.3	250
47	6855463	981.5	260
47	6856954	981.7	270
47	6858947	981.9	280
47	6860882	982.1	290
47	6862661	982.3	300
47	6864442	982.5	310
47	6865975	982.7	320
47	6870545	983.184	330
47	6870545	983.184	340
47	6871585	983.3	350
47	6873231	983.5	360
47	6874947	983.7	300
47	6876755	983.9	310
47	6878627	984.1	320
47	6880628	984.3	330
47	6882585	984.5	340
47	6884370	984.7	350
47	6886154	984.9	360
47	6890434	985.384	300
47	6890434	985.384	310
47	6891470	985.5	320
47	6893378	985.7	330
47	6895167	985.9	340
47	6897000	986.1	350
47	6898515	986.3	350
47	6898530	986.3	360
47	6900405	986.5	370
47	6902282	986.7	170
47	6903834	986.9	180
47	6905806	987.1	190
47	6907649	987.3	200
47	6909033	987.5	210
47	6910618	987.7	220
47	6913009	987.9	230
47	6915010	988.1	240
47	6916724	988.3	250
47	6918634	988.5	260
47	6920561	988.7	270
47	6922095	988.9	280
47	6923827	989.1	290
47	6925608	989.3	300
47	6927418	989.5	310
47	6929622	989.7	320
47	6931421	989.9	330
47	6933252	990.1	340
47	6935041	990.3	350
47	6936669	990.5	360
47	6940754	990.986	300
47	6940754	990.986	310
47	6941723	991.1	320
47	6943973	991.3	330
47	6945860	991.5	340
47	6947639	991.7	350
47	6949433	991.9	360
47	6951290	992.1	300
47	6953067	992.3	310
47	6954844	992.5	320
47	6956643	992.7	330
47	6958422	992.9	340
47	6960105	993.1	350
47	6962042	993.3	350
47	6962057	993.3	360
47	6963616	993.5	370
47	6968206	993.986	170
47	6968206	993.986	180
47	6969214	994.1	190
47	6970830	994.3	200
47	6972811	994.5	210
47	6973892	994.7	220
47	6975671	994.9	230
47	6978362	995.1	240
47	6983111	995.753	250
47	6983111	995.753	260
47	6983111	995.753	270
47	6988186	996.19	280
47	6988186	996.19	290
47	6989132	996.3	300
47	6991044	996.5	310
47	6992576	996.7	320
47	6994488	996.9	330
47	6996459	997.1	340
47	6997958	997.3	350
47	6999658	997.5	360
47	7001458	997.7	300
47	7006195	998.181	310
47	7006195	998.181	320
47	7007171	998.3	330
47	7011600	998.785	340
47	7013826	999.069	280
47	7013826	999.069	290
47	7016850	999.404	300
47	7016850	999.404	310
47	7017747	999.5	320
47	7019896	999.7	330
47	7021775	999.9	340
47	7023458	1000.1	350
47	7025135	1000.3	350
47	7025150	1000.3	360
47	7027025	1000.5	370
47	7029062	1000.7	170
47	7030847	1000.9	180
47	7035183	1001.387	190
47	7035183	1001.387	200
47	7036129	1001.5	210
47	7040435	1001.987	220
47	7042226	1002.26	230
47	7042226	1002.26	240
47	7042672	1002.3	250
47	7045199	1002.5	260
47	7046835	1002.7	270
47	7048497	1002.9	280
47	7050526	1003.1	290
47	7052555	1003.3	300
47	7054332	1003.5	310
47	7056127	1003.7	320
47	7057902	1003.9	330
47	7059477	1004.1	340
47	7064064	1004.582	280
47	7064064	1004.582	290
47	7065034	1004.7	300
47	7068894	1005.182	310
47	7068894	1005.182	320
47	7069783	1005.3	330
47	7073255	1005.785	340
47	7073255	1005.785	350
47	7074126	1005.9	360
47	7075741	1006.1	370
47	7077183	1006.3	380
47	7078621	1006.5	390
47	7079802	1006.7	400
47	7081371	1006.9	410
47	7082997	1007.1	420
47	7084426	1007.3	420
47	7084440	1007.3	430
47	7085911	1007.5	370
47	7087201	1007.7	170
47	7088803	1007.9	180
47	7090025	1008.1	190
47	7093392	1008.581	200
47	7093392	1008.581	210
47	7094563	1008.7	220
47	7095882	1008.9	230
47	7097495	1009.1	240
47	7098823	1009.3	250
47	7100316	1009.5	260
47	7101840	1009.7	270
47	7103442	1009.9	280
47	7104928	1010.1	290
47	7106366	1010.3	300
47	7109288	1010.785	310
47	7109288	1010.785	320
47	7110457	1010.9	330
47	7112236	1011.1	340
47	7113431	1011.3	350
47	7114999	1011.5	360
47	7116592	1011.7	230
47	7118028	1011.9	240
47	7119263	1012.1	250
47	7120610	1012.3	260
47	7122292	1012.5	270
47	7123878	1012.7	280
47	7125320	1012.9	290
47	7126802	1013.1	300
47	7128242	1013.3	310
47	7129682	1013.5	320
47	7131124	1013.7	330
47	7132558	1013.9	340
47	7134054	1014.1	350
47	7135070	1014.3	350
47	7137434	1014.581	150
47	7137434	1014.581	160
47	7138319	1014.7	170
47	7139876	1014.9	180
47	7141119	1015.1	190
47	7142688	1015.3	200
47	7143869	1015.5	210
47	7145602	1015.7	220
47	7148997	1016.183	230
47	7150252	1016.456	240
47	7150252	1016.456	250
47	7150659	1016.5	260
47	7152029	1016.7	270
47	7153254	1016.9	280
47	7154893	1017.1	290
47	7156719	1017.3	300
47	7158046	1017.5	310
47	7161896	1017.987	320
47	7161896	1017.987	330
47	7163119	1018.1	340
47	7164850	1018.3	350
47	7166289	1018.5	360
47	7167744	1018.7	240
47	7168929	1018.9	250
47	7170550	1019.1	260
47	7172124	1019.3	270
47	7175444	1019.781	280
47	7175444	1019.781	290
47	7176339	1019.9	300

