version 2
run FastSMR-0-20181114-02:21:51-9772
attr configname FastSMR
attr datetime 20181114-02:21:51
attr experiment FastSMR
attr inifile omnetpp.ini
attr iterationvars "$GCCycleForLatency=1000, $GC=true"
attr iterationvarsf GCCycleForLatency=1000,GC=true-
attr measurement "$GCCycleForLatency=1000, $GC=true"
attr network abstract.FastSMRModel
attr processid 9772
attr repetition 0
attr replication #0
attr resultdir results
attr runnumber 0
attr seedset 0
itervar GC true
itervar GCCycleForLatency 1000
param FastSMRModel.client_num 10
param FastSMRModel.logical_computer "\"client[0]\""
param **.globalParameters.max_distance 20000000m
param **.globalParameters.fix_latency 100ms
param **.globalParameters.latency_gen_mode 0
param **.globalStatistics.cool_down 10s
param **.underlayConfigurator.lcType "\"abstract.LogicComputer\""
param **.underlayConfigurator.lcName "\"logicComputer\""
param **.underlayConfigurator.nodeType "\"hosts.Node\""
param **.underlayConfigurator.nodeName "\"node\""
param **.underlayConfigurator.clientType "\"hosts.Client\""
param **.underlayConfigurator.clientName "\"client\""
param **.client[*].ctrl.initJoinTime 3000ms
param **.client[*].ctrl.loadCycle 500ms
param **.client[*].ctrl.discoveryCycle 1000ms
param **.client[*].ctrl.deviate false
param **.node[*].IPInterface "\"IPAddress\""
param **.node[*].HBcycle 1000ms
param **.node[*].ctrl.roundCycle 200ms
param **.node[*].ctrl.cycleStart 4000ms
param **.node[*].ctrl.GCCycle 1000ms
param **.node[*].ctrl.GC true
param **.rendezvous.ctrl.cycle 1000ms
param **.rendezvous.ctrl.starttime 5000ms
param **.rendezvous.replicaNumPolicyModule "\"replication\""
param **.rendezvous.replication.threshold 3
param **.rendezvous.replication.max_replica 5
param **.clock.err_mean 74ms
param **.clock.err_std 175ms
param **.pktLossRate 0.01
param **.Copt 200000000mps
param **.BW 1.04858e6bps
param **.MTU 12144b
param **.jitter_mu 1
param **.jitter_sigma 0.5
param **.Dmin 50ms
param **.jitter 50ms
param **.churnGeneratorModule "\"churnGenerator\""
param **.churnGenerator.stable_fraction 0.2
param **.churnGenerator.stable_mean 9000000ms
param **.churnGenerator.sessionLenShape 0.38
param **.churnGenerator.sessionLenScale 42.4
param **.churnGenerator.sessionLenMin 10s
param **.churnGenerator.sessionLength 30min
param **.churnGenerator.scan_cycle 100ms
param **.churnGenerator.life_span_min 10s
param **.churnGenerator.life_span_max 200s
param **.coordinator.locXMax 750
param **.coordinator.locYMax 550
param **.coordinator.locXMin 200
param **.coordinator.locYMin 50
param **.coordinator.LCXMax 1050
param **.coordinator.LCYMax 550
param **.coordinator.LCXMin 850
param **.coordinator.LCYMin 50
param **.coordinator.percept_radius 1000

vector 0 FastSMRModel.client[0] IndividualInteractionLatency:vector ETV
attr source latency
attr title "Individual Interaction Latency, vector"
vector 1 FastSMRModel.client[9] IndividualInteractionLatency:vector ETV
attr source latency
attr title "Individual Interaction Latency, vector"
vector 2 FastSMRModel.logicComputer[0].node[0] QdLengthVector:vector ETV
attr source QdLength
attr title "Qd Length, vector"
vector 3 FastSMRModel.logicComputer[0].node[2] QdLengthVector:vector ETV
attr source QdLength
attr title "Qd Length, vector"
vector 4 FastSMRModel.logicComputer[0].node[4] QdLengthVector:vector ETV
attr source QdLength
attr title "Qd Length, vector"
vector 5 FastSMRModel.client[4] IndividualInteractionLatency:vector ETV
attr source latency
attr title "Individual Interaction Latency, vector"
vector 6 FastSMRModel.client[5] IndividualInteractionLatency:vector ETV
attr source latency
attr title "Individual Interaction Latency, vector"
vector 7 FastSMRModel.client[3] IndividualInteractionLatency:vector ETV
attr source latency
attr title "Individual Interaction Latency, vector"
vector 8 FastSMRModel.client[2] IndividualInteractionLatency:vector ETV
attr source latency
attr title "Individual Interaction Latency, vector"
vector 9 FastSMRModel.client[7] IndividualInteractionLatency:vector ETV
attr source latency
attr title "Individual Interaction Latency, vector"
vector 10 FastSMRModel.client[8] IndividualInteractionLatency:vector ETV
attr source latency
attr title "Individual Interaction Latency, vector"
vector 11 FastSMRModel.client[1] IndividualInteractionLatency:vector ETV
attr source latency
attr title "Individual Interaction Latency, vector"
vector 12 FastSMRModel.client[6] IndividualInteractionLatency:vector ETV
attr source latency
attr title "Individual Interaction Latency, vector"
vector 13 FastSMRModel.logicComputer[0].node[1] QdLengthVector:vector ETV
attr source QdLength
attr title "Qd Length, vector"
vector 14 FastSMRModel.logicComputer[0].node[3] QdLengthVector:vector ETV
attr source QdLength
attr title "Qd Length, vector"
14	7630	10.321	20
14	7630	10.321	30
14	7630	10.321	40
14	9442	10.5	40
14	9457	10.5	50
14	11142	10.7	60
14	12851	10.9	30
14	14457	11.1	40
14	16812	11.3	50
14	18663	11.5	50
14	18678	11.5	60
14	20523	11.7	70
14	25992	12.326	30
14	25992	12.326	40
14	25992	12.326	50
14	27586	12.5	50
14	27601	12.5	60
14	33174	13.127	20
14	33174	13.127	30
14	33174	13.127	40
14	34728	13.3	50
14	36540	13.5	50
14	36555	13.5	60
14	38635	13.7	70
14	40512	13.9	40
14	42036	14.1	50
14	43347	14.3	60
14	45867	14.5	60
14	45882	14.5	70
14	47811	14.7	70
14	49600	14.9	30
14	51264	15.1	40
14	54737	15.5	40
14	56923	15.72	10
14	56923	15.72	20
14	56923	15.72	30
14	58595	15.9	40
14	63499	16.5	40
14	64185	16.522	40
14	64185	16.522	50
14	64185	16.522	60
14	65856	16.7	70
14	67190	16.9	50
14	68384	17.1	60
14	71097	17.3	70
14	73214	17.5	70
14	73229	17.5	80
14	75080	17.7	70
14	76584	17.9	30
14	78634	18.1	40
14	80507	18.3	50
14	82266	18.5	50
14	82281	18.5	60
14	83841	18.7	70
14	85138	18.9	30
14	90780	19.5	30
14	91374	19.524	40
14	94917	19.943	20
14	94917	19.943	30
14	94917	19.943	40
14	94917	19.943	50
14	99897	20.5	50
14	100475	20.525	40
14	100475	20.525	50
14	100475	20.525	60
14	102146	20.7	70
14	104253	20.9	50
14	106108	21.1	60
14	107887	21.3	70
14	109397	21.5	70
14	109412	21.5	80
14	111460	21.7	70
14	113048	21.9	40
14	114564	22.1	50
14	116929	22.3	60
14	118473	22.5	60
14	118488	22.5	70
14	120028	22.7	70
14	122126	22.9	40
14	123519	23.1	50
14	127623	23.5	50
14	129833	23.719	10
14	129833	23.719	20
14	129833	23.719	30
14	131526	23.9	40
14	136430	24.5	40
14	137130	24.521	40
14	137130	24.521	50
14	137130	24.521	60
14	142616	25.123	40
14	142616	25.123	50
14	142616	25.123	60
14	145704	25.5	60
14	148078	25.719	10
14	148078	25.719	20
14	148078	25.719	30
14	149770	25.9	40
14	151523	26.1	50
14	153488	26.3	60
14	154985	26.5	60
14	155000	26.5	70
14	156530	26.7	70
14	158749	26.9	40
14	160798	27.1	50
14	162601	27.3	60
14	164374	27.5	60
14	164389	27.5	70
14	166250	27.7	80
14	171567	28.318	30
14	172505	28.5	30
14	174524	28.738	10
14	176187	28.937	20
14	176187	28.937	30
14	176187	28.937	40
14	176187	28.937	50
14	177896	29.1	60
14	179862	29.3	70
14	181217	29.5	70
14	181233	29.5	80
14	184046	29.7	80
14	186062	29.9	70
14	187514	30.1	80
14	188748	30.3	90
14	191509	30.5	90
14	191525	30.5	100
14	193653	30.7	110
14	195436	30.9	30
14	196996	31.1	40
14	198998	31.3	50
14	200682	31.5	50
14	200697	31.5	60
14	202726	31.7	70
14	204341	31.9	30
14	206333	32.1	40
14	208130	32.3	50
14	209909	32.5	50
14	209924	32.5	60
14	211781	32.7	70
14	213564	32.9	30
14	215389	33.1	40
14	216612	33.3	50
14	217756	33.5	50
14	217771	33.5	60
14	218809	33.7	70
14	222129	33.9	50
14	224500	34.1	60
14	226279	34.3	70
14	228052	34.5	70
14	228067	34.5	80
14	229926	34.7	90
14	231709	34.9	30
14	233381	35.1	40
14	235333	35.3	50
14	237124	35.5	50
14	237139	35.5	60
14	238990	35.7	70
14	240763	35.9	30
14	242600	36.1	40
14	244206	36.3	50
14	245582	36.5	50
14	245597	36.5	60
14	246807	36.7	70
14	249298	36.9	40
14	251637	37.1	50
14	253500	37.3	60
14	255271	37.5	60
14	255286	37.5	70
14	257151	37.7	80
14	258935	37.9	30
14	260765	38.1	40
14	262379	38.3	50
14	264060	38.5	50
14	264075	38.5	60
14	266129	38.7	70
14	267998	38.9	40
14	269572	39.1	50
14	271556	39.3	60
14	273413	39.5	60
14	273428	39.5	70
14	275106	39.7	70
14	277074	39.9	30
14	278911	40.1	40
14	280106	40.3	50
14	281246	40.5	50
14	281261	40.5	60
14	284090	40.7	70
14	289667	41.321	50
14	289667	41.321	60
14	289667	41.321	70
14	291517	41.5	70
14	291532	41.5	80
14	293476	41.7	90
14	295100	41.9	30
14	300094	42.5	30
14	300645	42.52	40
14	300645	42.52	50
14	300645	42.52	60
14	302304	42.7	70
14	304354	42.9	50
14	306210	43.1	60
14	307989	43.3	70
14	309601	43.5	70
14	309616	43.5	80
14	311648	43.7	70
14	313439	43.9	30
14	315266	44.1	40
14	317045	44.3	50
14	318824	44.5	50
14	318839	44.5	60
14	324342	45.119	20
14	324342	45.119	30
14	324342	45.119	40
14	326028	45.3	50
14	327892	45.5	50
14	327907	45.5	60
14	329764	45.7	70
14	331268	45.9	30
14	333322	46.1	40
14	335185	46.3	50
14	336781	46.5	50
14	336796	46.5	60
14	338812	46.7	70
14	340350	46.9	30
14	342380	47.1	40
14	344257	47.3	50
14	345747	47.5	50
14	345762	47.5	60
14	347286	47.7	70
14	349499	47.9	40
14	351556	48.1	50
14	354858	48.5	50
14	356955	48.724	10
14	356955	48.724	20
14	356955	48.724	30
14	358375	48.9	40
14	360038	49.1	50
14	362411	49.3	60
14	364252	49.5	60
14	364267	49.5	70
14	366124	49.7	70
14	367899	49.9	30
14	369742	50.1	40
14	371523	50.3	50
14	373017	50.5	50
14	373032	50.5	60
14	374933	50.7	70
14	376961	50.9	40
14	378820	51.1	50
14	381791	51.5	50
14	385721	51.937	10
14	385721	51.937	20
14	385721	51.937	30
14	385721	51.937	40
14	387534	52.1	50
14	389118	52.3	60
14	390282	52.5	60
14	390297	52.5	70
14	392846	52.7	80
14	395191	52.9	50
14	396739	53.1	60
14	398215	53.3	70
14	400574	53.5	70
14	404350	53.922	10
14	404350	53.922	20
14	404350	53.922	30
14	406055	54.1	40
14	409441	54.5	40
14	411623	54.718	10
14	411623	54.718	20
14	411623	54.718	30
14	413322	54.9	40
14	415242	55.1	50
14	417019	55.3	60
14	418796	55.5	60
14	418811	55.5	70
14	420374	55.7	70
14	421857	55.9	30
14	424274	56.1	40
14	426113	56.3	50
14	427609	56.5	50
14	427624	56.5	60
14	429503	56.7	70
14	431371	56.9	40
14	433404	57.1	50
14	435206	57.3	60
14	436984	57.5	60
14	436999	57.5	70
14	438840	57.7	70
14	440629	57.9	30
14	442466	58.1	40
14	445175	58.5	40
14	448855	58.937	10
14	448855	58.937	20
14	448855	58.937	30
14	448855	58.937	40
14	450757	59.1	50
14	452997	59.3	60
14	454559	59.5	60
14	454574	59.5	70
14	456601	59.7	80
14	458854	59.9	50
14	460715	60.1	60
14	462217	60.3	70
14	464203	60.5	70
14	464218	60.5	80
14	465864	60.7	90
14	467338	60.9	30
14	469755	61.1	40
14	471592	61.3	50
14	472785	61.5	50
14	472800	61.5	60
14	474012	61.7	70
14	476515	61.9	40
14	478840	62.1	50
14	480709	62.3	60
14	482484	62.5	60
14	482499	62.5	70
14	487874	63.12	20
14	487874	63.12	30
14	487874	63.12	40
14	489714	63.3	50
14	491437	63.5	50
14	491452	63.5	60
14	493193	63.7	70
14	494934	63.9	30
14	496522	64.1	40
14	498893	64.3	50
14	500438	64.5	50
14	500453	64.5	60
14	502200	64.7	70
14	504255	64.9	40
14	506266	65.1	50
14	508045	65.3	60
14	509816	65.5	60
14	509831	65.5	70
14	511686	65.7	70
14	513475	65.9	30
14	515135	66.1	40
14	517095	66.3	50
14	518703	66.5	50
14	518718	66.5	60
14	520748	66.7	70
14	526066	67.319	30
14	526066	67.319	40
14	526066	67.319	50
14	527682	67.5	50
14	527697	67.5	60
14	529814	67.7	70
14	531607	67.9	30
14	533179	68.1	40
14	535171	68.3	50
14	536859	68.5	50
14	536874	68.5	60
14	538621	68.7	70
14	540085	68.9	80
14	542336	69.1	40
14	544355	69.3	50
14	546132	69.5	50
14	546147	69.5	60
14	547839	69.7	70
14	549783	69.9	30
14	551636	70.1	40
14	553144	70.3	50
14	555136	70.5	50
14	555151	70.5	60
14	557078	70.7	70
14	558594	70.9	30
14	563409	71.5	30
14	563832	71.525	40
14	567440	71.948	20
14	569370	72.139	30
14	569370	72.139	40
14	569370	72.139	50
14	569370	72.139	60
14	570911	72.3	70
13	6795	10.284	30
13	6979	10.3	40
13	9440	10.5	40
13	9455	10.5	50
13	11140	10.7	20
13	12849	10.9	30
13	14455	11.1	40
13	16810	11.3	50
13	18661	11.5	50
13	18676	11.5	60
13	20521	11.7	20
13	22314	11.9	30
13	23863	12.1	40
13	25338	12.3	50
13	27584	12.5	50
13	27599	12.5	60
13	29318	12.7	20
13	31047	12.9	30
13	34542	13.283	40
13	34726	13.3	50
13	36538	13.5	50
13	36553	13.5	60
13	38633	13.7	30
13	40510	13.9	40
13	43179	14.286	50
13	43345	14.3	60
13	45865	14.5	60
13	45880	14.5	70
13	47809	14.7	20
13	49598	14.9	30
13	51262	15.1	40
13	53236	15.3	50
13	54735	15.5	50
13	54750	15.5	60
13	56281	15.7	30
13	58593	15.9	40
13	60519	16.1	50
13	62029	16.3	60
13	63497	16.5	60
13	63512	16.5	70
13	65854	16.7	40
13	67188	16.9	50
13	68382	17.1	60
13	71095	17.3	70
13	73212	17.5	70
13	73227	17.5	80
13	75078	17.7	20
13	76582	17.9	30
13	78632	18.1	40
13	80505	18.3	50
13	82264	18.5	50
13	82279	18.5	60
13	84970	18.887	20
13	85136	18.9	30
13	88973	19.287	40
13	89157	19.3	50
13	90778	19.5	50
13	92258	19.681	60
13	92456	19.7	40
13	94165	19.9	50
13	96750	20.1	60
13	98194	20.3	70
13	99895	20.5	70
13	101974	20.686	30
13	102144	20.7	40
13	104251	20.9	50
13	106106	21.1	60
13	107885	21.3	70
13	109395	21.5	70
13	109410	21.5	80
13	111458	21.7	30
13	113046	21.9	40
13	114562	22.1	50
13	116927	22.3	60
13	118471	22.5	60
13	118486	22.5	70
13	120026	22.7	30
13	122124	22.9	40
13	125493	23.288	50
13	125755	23.3	60
13	127621	23.5	60
13	127636	23.5	70
13	129204	23.7	30
13	131524	23.9	40
13	134581	24.282	50
13	134795	24.3	60
13	136428	24.5	60
13	136443	24.5	70
13	138811	24.7	40
13	140433	24.9	50
13	141968	25.1	60
13	145528	25.486	70
13	145702	25.5	70
13	145717	25.5	80
13	147429	25.7	30
13	149768	25.9	40
13	151521	26.1	50
13	153486	26.3	60
13	154983	26.5	60
13	154998	26.5	70
13	158509	26.881	30
13	158747	26.9	40
13	160796	27.1	50
13	162599	27.3	60
13	164372	27.5	60
13	164387	27.5	70
13	166248	27.7	20
13	168023	27.9	30
13	169572	28.1	40
13	171055	28.3	50
13	172503	28.5	50
13	172518	28.5	60
13	173800	28.7	40
13	175560	28.9	50
13	177894	29.1	60
13	179860	29.3	70
13	181215	29.5	70
13	181231	29.5	80
13	184044	29.7	60
13	189999	30.38	70
13	189999	30.38	80
13	189999	30.38	90
13	191507	30.5	90
13	191523	30.5	100
13	193651	30.7	20
13	195434	30.9	30
13	196994	31.1	40
13	198996	31.3	50
13	200680	31.5	50
13	200695	31.5	60
13	204153	31.884	20
13	204339	31.9	30
13	206331	32.1	40
13	208128	32.3	50
13	209907	32.5	50
13	209922	32.5	60
13	211779	32.7	20
13	213562	32.9	30
13	215387	33.1	40
13	216610	33.3	50
13	217754	33.5	50
13	217769	33.5	60
13	218807	33.7	40
13	222127	33.9	50
13	224498	34.1	60
13	226277	34.3	70
13	228050	34.5	70
13	228065	34.5	80
13	229924	34.7	20
13	231707	34.9	30
13	233379	35.1	40
13	235331	35.3	50
13	237122	35.5	50
13	237137	35.5	60
13	238988	35.7	20
13	240761	35.9	30
13	242598	36.1	40
13	245580	36.5	40
13	247899	36.784	10
13	247899	36.784	20
13	247899	36.784	30
13	249296	36.9	40
13	251635	37.1	50
13	253498	37.3	60
13	255269	37.5	60
13	255284	37.5	70
13	257149	37.7	20
13	258933	37.9	30
13	260763	38.1	40
13	262377	38.3	50
13	264058	38.5	50
13	264073	38.5	60
13	266127	38.7	30
13	267996	38.9	40
13	269570	39.1	50
13	271554	39.3	60
13	273411	39.5	60
13	273426	39.5	70
13	275104	39.7	20
13	277072	39.9	30
13	281244	40.5	30
13	282580	40.582	40
13	282580	40.582	50
13	282580	40.582	60
13	284088	40.7	40
13	285882	40.9	50
13	287358	41.1	60
13	289005	41.3	70
13	291515	41.5	70
13	291530	41.5	80
13	294912	41.887	20
13	295098	41.9	30
13	296919	42.1	40
13	298623	42.3	50
13	300092	42.5	50
13	302070	42.683	30
13	302302	42.7	40
13	304352	42.9	50
13	306208	43.1	60
13	307987	43.3	70
13	309599	43.5	70
13	309614	43.5	80
13	311646	43.7	20
13	313437	43.9	30
13	315264	44.1	40
13	317043	44.3	50
13	318822	44.5	50
13	318837	44.5	60
13	320686	44.7	20
13	322191	44.9	30
13	323711	45.1	40
13	326026	45.3	50
13	327890	45.5	50
13	327905	45.5	60
13	329762	45.7	20
13	331266	45.9	30
13	333320	46.1	40
13	336613	46.484	50
13	336779	46.5	50
13	336794	46.5	60
13	338810	46.7	20
13	340348	46.9	30
13	342378	47.1	40
13	344255	47.3	50
13	345745	47.5	50
13	345760	47.5	60
13	349257	47.882	30
13	349497	47.9	40
13	351554	48.1	50
13	353353	48.3	60
13	354856	48.5	60
13	354871	48.5	70
13	356408	48.7	30
13	358373	48.9	40
13	360036	49.1	50
13	362409	49.3	60
13	364250	49.5	60
13	364265	49.5	70
13	366122	49.7	20
13	367897	49.9	30
13	369740	50.1	40
13	371521	50.3	50
13	373015	50.5	50
13	374743	50.682	60
13	374931	50.7	30
13	376959	50.9	40
13	380236	51.281	50
13	380416	51.3	60
13	381789	51.5	60
13	381804	51.5	70
13	383037	51.7	30
13	387344	52.081	40
13	387532	52.1	50
13	389116	52.3	60
13	390280	52.5	60
13	390295	52.5	70
13	392844	52.7	70
13	395189	52.9	50
13	396737	53.1	60
13	398213	53.3	70
13	400572	53.5	70
13	400587	53.5	80
13	402048	53.7	20
13	403709	53.9	30
13	406053	54.1	40
13	407941	54.3	50
13	409439	54.5	50
13	409454	54.5	60
13	410986	54.7	30
13	413320	54.9	40
13	415240	55.1	50
13	417017	55.3	60
13	418794	55.5	60
13	418809	55.5	70
13	420372	55.7	20
13	421855	55.9	30
13	424272	56.1	40
13	426111	56.3	50
13	427607	56.5	50
13	429321	56.683	20
13	431193	56.887	30
13	431369	56.9	40
13	433402	57.1	50
13	435204	57.3	60
13	436982	57.5	60
13	436997	57.5	70
13	438838	57.7	20
13	440627	57.9	30
13	442464	58.1	40
13	444233	58.3	50
13	445173	58.5	50
13	445188	58.5	60
13	446091	58.7	30
13	448151	58.9	40
13	450755	59.1	50
13	452995	59.3	60
13	454557	59.5	60
13	456265	59.681	70
13	456599	59.7	40
13	458852	59.9	50
13	460713	60.1	60
13	462215	60.3	70
13	464201	60.5	70
13	464216	60.5	80
13	465862	60.7	20
13	467336	60.9	30
13	469753	61.1	40
13	472783	61.5	40
13	475106	61.783	10
13	475106	61.783	20
13	475106	61.783	30
13	476513	61.9	40
13	478838	62.1	50
13	480707	62.3	60
13	482482	62.5	60
13	482497	62.5	70
13	484049	62.7	20
13	486950	63.082	30
13	487178	63.1	40
13	491263	63.485	50
13	491435	63.5	50
13	491450	63.5	60
13	493191	63.7	20
13	494932	63.9	30
13	496520	64.1	40
13	498891	64.3	50
13	500436	64.5	50
13	500451	64.5	60
13	502198	64.7	30
13	504253	64.9	40
13	506264	65.1	50
13	508043	65.3	60
13	509814	65.5	60
13	509829	65.5	70
13	511684	65.7	20
13	513473	65.9	30
13	515133	66.1	40
13	517093	66.3	50
13	518701	66.5	50
13	518716	66.5	60
13	520746	66.7	20
13	522537	66.9	30
13	524090	67.1	40
13	527468	67.483	50
13	527680	67.5	50
13	527695	67.5	60
13	529812	67.7	20
13	531605	67.9	30
13	533177	68.1	40
13	535169	68.3	50
13	536857	68.5	50
13	536872	68.5	60
13	538619	68.7	20
13	542096	69.081	30
13	542334	69.1	40
13	544353	69.3	50
13	546130	69.5	50
13	547655	69.684	10
13	547837	69.7	20
13	549781	69.9	30
13	551634	70.1	40
13	553142	70.3	50
13	555134	70.5	50
13	555149	70.5	60
13	557076	70.7	20
13	558592	70.9	30
13	560640	71.1	40
13	562223	71.3	50
13	563407	71.5	50
13	563422	71.5	60
13	565141	71.7	40
13	566463	71.9	50
13	568824	72.1	60
13	570909	72.3	70
13	572258	72.5	70
13	572272	72.5	80
13	574670	72.7	90
13	576490	72.9	100
13	577970	73.1	110
13	579414	73.3	120
13	580679	73.5	120
13	580694	73.5	130
13	582351	73.7	20
13	584920	74.082	30
13	585102	74.1	40
13	586136	74.3	50
13	587917	74.5	50
13	589336	74.686	10
13	589516	74.7	20
13	591121	74.9	30
13	592627	75.1	40
13	594071	75.3	50
13	595489	75.5	50
13	595503	75.5	60
13	596989	75.7	20
13	598435	75.9	30
13	599927	76.1	40
13	601365	76.3	50
13	602516	76.5	50
13	602530	76.5	60
13	604223	76.7	30
13	605739	76.9	40
13	607229	77.1	50
13	608673	77.3	60
13	610093	77.5	60
13	610108	77.5	70
13	611303	77.7	20
13	612996	77.9	30
13	614285	78.1	40
13	617103	78.482	50
13	617273	78.5	50
13	617287	78.5	60
13	618934	78.7	20
13	620393	78.9	30
13	621868	79.1	40
13	623151	79.3	50
13	624758	79.5	50
13	624772	79.5	60
13	626254	79.7	20
13	628825	80.083	30
13	629003	80.1	40
13	630434	80.3	50
13	632074	80.5	50
13	632088	80.5	60
13	633574	80.7	20
13	634839	80.9	30
13	637231	81.282	40
13	637569	81.3	50
13	639425	81.5	50
13	639439	81.5	60
13	640931	81.7	20
13	642389	81.9	30
13	643867	82.1	40
13	645315	82.3	50
13	646737	82.5	50
13	646751	82.5	60
13	648243	82.7	20
13	649675	82.9	30
13	650586	83.1	40
13	651899	83.3	50
13	653100	83.5	50
13	653114	83.5	60
13	655289	83.7	40
13	657054	83.9	50
13	658530	84.1	60
13	659973	84.3	70
13	661408	84.5	70
13	661422	84.5	80
13	662896	84.7	20
13	664054	84.9	30
13	666952	85.283	40
13	667124	85.3	50
13	668723	85.5	50
13	668737	85.5	60
13	670235	85.7	20
13	671683	85.9	30
13	674252	86.284	40
13	674430	86.3	50
13	676025	86.5	50
13	676039	86.5	60
13	677553	86.7	20
13	678983	86.9	30
13	680469	87.1	40
13	681913	87.3	50
13	683072	87.5	50
13	683086	87.5	60
13	684773	87.7	30
13	686007	87.9	40
13	687748	88.1	50
13	689244	88.3	60
13	690509	88.5	60
13	690523	88.5	70
13	692194	88.7	20
13	693630	88.9	30
13	694830	89.1	40
13	696513	89.3	50
13	698021	89.5	50
13	698035	89.5	60
13	699225	89.7	20
13	702121	90.081	30
13	702301	90.1	40
13	705017	90.485	50
13	705193	90.5	50
13	705207	90.5	60
13	706840	90.7	20
13	708039	90.9	30
13	709545	91.1	40
13	711264	91.3	50
13	712684	91.5	50
13	712698	91.5	60
13	714184	91.7	20
13	715628	91.9	30
13	717866	92.281	40
13	719243	92.482	50
13	719543	92.5	50
13	719557	92.5	60
13	721538	92.7	20
13	722700	92.9	30
13	724447	93.1	40
13	725959	93.3	50
13	727091	93.5	50
13	727105	93.5	60
13	728848	93.7	30
13	730362	93.9	40
13	731567	94.1	50
13	733214	94.3	60
13	734742	94.5	60
13	734756	94.5	70
13	736224	94.7	20
13	737672	94.9	30
13	739154	95.1	40
13	740590	95.3	50
13	742026	95.5	50
13	742040	95.5	60
13	743530	95.7	20
13	744970	95.9	30
13	746450	96.1	40
13	747888	96.3	50
13	749322	96.5	50
13	749336	96.5	60
13	751921	96.893	20
13	752085	96.9	30
13	753728	97.1	40
13	755196	97.3	50
13	756618	97.5	50
13	756633	97.5	60
13	757826	97.7	20
13	759067	97.9	30
13	761033	98.1	40
13	762561	98.3	50
13	763691	98.5	50
13	763705	98.5	60
13	765174	98.7	30
13	766900	98.9	40
13	768458	99.1	50
13	769735	99.3	60
13	771348	99.5	60
13	771362	99.5	70
13	773927	99.885	20
13	774103	99.9	30
13	775477	100.1	40
13	777156	100.3	50
13	778497	100.5	50
13	778511	100.5	60
13	779882	100.7	20
13	781297	100.9	30
13	782490	101.1	40
13	784343	101.3	50
13	786059	101.5	50
13	786073	101.5	60
13	788640	101.884	20
13	788821	101.9	30
13	790167	102.1	40
13	791718	102.3	50
13	793412	102.5	50
13	793426	102.5	60
13	794743	102.7	20
13	796356	102.9	30
13	797853	103.1	40
13	799013	103.3	50
13	800654	103.5	50
13	801879	103.688	10
13	802065	103.7	20
13	803666	103.9	30
13	805162	104.1	40
13	806610	104.3	50
13	808028	104.5	50
13	808042	104.5	60
13	809534	104.7	20
13	810795	104.9	30
13	813459	105.284	40
13	815024	105.482	50
13	815205	105.5	50
13	815219	105.5	60
13	816891	105.7	70
13	818343	105.9	30
13	819839	106.1	40
13	822356	106.481	50
13	822536	106.5	50
13	822550	106.5	60
13	824187	106.7	20
13	825374	106.9	30
13	827063	107.1	40
13	828434	107.3	50
13	830031	107.5	50
13	830045	107.5	60
13	831362	107.7	20
13	832983	107.9	30
13	834465	108.1	40
13	835903	108.3	50
13	837345	108.5	50
13	837359	108.5	60
13	838543	108.7	20
13	839962	108.9	30
13	841359	109.1	40
13	843207	109.3	50
13	844719	109.5	50
13	844733	109.5	60
13	846201	109.7	20
13	847655	109.9	30
13	849141	110.1	40
13	850575	110.3	50
13	851446	110.5	50
13	851460	110.5	60
13	853066	110.7	30
13	854672	110.9	40
13	856479	111.1	50
13	857640	111.3	60
13	859310	111.5	60
13	859324	111.5	70
13	860900	111.7	20
13	862318	111.9	30
13	863531	112.1	40
13	865180	112.3	50
13	866429	112.5	50
13	866443	112.5	60
13	868130	112.7	30
13	869385	112.9	40
13	870787	113.1	50
13	872485	113.3	60
13	874073	113.5	60
13	874087	113.5	70
13	875577	113.7	20
13	877007	113.9	30
13	878322	114.1	40
13	880958	114.481	50
13	881132	114.5	50
13	881146	114.5	60
13	882873	114.7	20
13	885464	115.082	30
13	885644	115.1	40
13	887084	115.3	50
13	888715	115.5	50
13	888729	115.5	60
13	890973	115.881	20
13	891241	115.9	30
13	894244	116.283	40
13	895428	116.487	50
13	895686	116.5	50
13	895700	116.5	60
13	897541	116.7	20
13	899009	116.9	30
13	900497	117.1	40
13	901364	117.3	50
13	903127	117.5	50
13	903141	117.5	60
13	904895	117.7	20
13	906345	117.9	30
13	908910	118.286	40
13	909088	118.3	50
13	910114	118.5	50
13	910128	118.5	60
13	911303	118.7	30
13	913591	118.9	40
13	915165	119.1	50
13	916605	119.3	60
13	918027	119.5	60
13	918041	119.5	70
13	919240	119.7	20
13	920891	119.9	30
13	922300	120.1	40
13	923621	120.3	50
13	925038	120.5	50
13	925052	120.5	60
13	927993	120.886	30
13	928177	120.9	40
13	931721	121.383	50
13	931721	121.383	60
13	932596	121.5	60
13	932611	121.5	70
13	934244	121.7	20
13	935392	121.9	30
13	938282	122.281	40
13	938464	122.3	50
13	940059	122.5	50
13	940073	122.5	60
13	941577	122.7	20
13	943021	122.9	30
13	944207	123.1	40
13	945626	123.3	50
13	947089	123.5	50
13	947103	123.5	60
13	948432	123.7	30
13	950278	123.9	40
13	951954	124.1	50
13	953392	124.3	60
13	954820	124.5	60
13	954834	124.5	70
13	956318	124.7	20
13	957760	124.9	30
13	960830	125.348	40
13	961472	125.5	40
13	961912	125.531	50
13	961912	125.531	60
13	963510	125.7	30
13	965114	125.9	40
13	966586	126.1	50
13	968036	126.3	60
13	969462	126.5	60
13	969476	126.5	70
13	970952	126.7	20
13	972412	126.9	30
13	973888	127.1	40
13	975328	127.3	50
13	976766	127.5	50
13	976780	127.5	60
13	978083	127.7	20
13	979546	127.9	30
13	981206	128.1	40
13	982658	128.3	50
13	983809	128.5	50
13	983823	128.5	60
13	985514	128.7	30
13	987038	128.9	40
13	988522	129.1	50
2	5666	10.1	30
2	6978	10.3	40
2	9439	10.5	40
2	11695	10.73	10
2	11695	10.73	20
2	12848	10.9	30
2	14454	11.1	40
2	16809	11.3	50
2	18660	11.5	50
2	18675	11.5	60
2	20520	11.7	20
2	22313	11.9	30
2	23862	12.1	40
2	25337	12.3	50
2	27583	12.5	50
2	29883	12.731	10
2	29883	12.731	20
2	31046	12.9	30
2	32638	13.1	40
2	36537	13.5	40
2	37310	13.537	50
2	37310	13.537	60
2	38632	13.7	30
2	40509	13.9	40
2	42033	14.1	50
2	43344	14.3	60
2	45864	14.5	60
2	45879	14.5	70
2	47808	14.7	20
2	49597	14.9	30
2	51261	15.1	40
2	53235	15.3	50
2	54734	15.5	50
2	54749	15.5	60
2	56280	15.7	30
2	58592	15.9	40
2	60518	16.1	50
2	62028	16.3	60
2	63496	16.5	60
2	63511	16.5	70
2	65853	16.7	40
2	67187	16.9	50
2	68381	17.1	60
2	71094	17.3	70
2	73211	17.5	70
2	73226	17.5	80
2	77281	17.933	20
2	77281	17.933	30
2	78631	18.1	40
2	80504	18.3	50
2	82263	18.5	50
2	82278	18.5	60
2	83838	18.7	20
2	85135	18.9	30
2	87553	19.1	40
2	89156	19.3	50
2	90777	19.5	50
2	90792	19.5	60
2	92455	19.7	40
2	94164	19.9	50
2	98726	20.331	60
2	98726	20.331	70
2	99894	20.5	70
2	99909	20.5	80
2	102143	20.7	40
2	104250	20.9	50
2	106105	21.1	60
2	109394	21.5	60
2	110128	21.533	70
2	110128	21.533	80
2	111457	21.7	30
2	113045	21.9	40
2	114561	22.1	50
2	116926	22.3	60
2	118470	22.5	60
2	118485	22.5	70
2	120025	22.7	30
2	122123	22.9	40
2	123516	23.1	50
2	125754	23.3	60
2	127620	23.5	60
2	127635	23.5	70
2	129203	23.7	30
2	131523	23.9	40
2	133272	24.1	50
2	134794	24.3	60
2	136427	24.5	60
2	136442	24.5	70
2	138810	24.7	40
2	140432	24.9	50
2	141967	25.1	60
2	144227	25.3	70
2	145701	25.5	70
2	145716	25.5	80
2	147428	25.7	30
2	149767	25.9	40
2	151520	26.1	50
2	153485	26.3	60
2	154982	26.5	60
2	154997	26.5	70
2	156527	26.7	30
2	158746	26.9	40
2	160795	27.1	50
2	162598	27.3	60
2	164371	27.5	60
2	164386	27.5	70
2	166247	27.7	20
2	168022	27.9	30
2	169571	28.1	40
2	171054	28.3	50
2	172502	28.5	50
2	172517	28.5	60
2	173799	28.7	40
2	175559	28.9	50
2	177893	29.1	60
2	179859	29.3	70
2	181214	29.5	70
2	181230	29.5	80
2	186507	29.937	60
2	186507	29.937	70
2	187511	30.1	80
2	188745	30.3	90
2	191506	30.5	90
2	191522	30.5	100
2	193650	30.7	20
2	197653	31.129	30
2	197653	31.129	40
2	198995	31.3	50
2	200679	31.5	50
2	200694	31.5	60
2	202723	31.7	20
2	204338	31.9	30
2	206330	32.1	40
2	208127	32.3	50
2	209906	32.5	50
2	209921	32.5	60
2	211778	32.7	20
2	213561	32.9	30
2	217753	33.5	30
2	220424	33.807	10
2	220424	33.807	20
2	220424	33.807	30
2	220424	33.807	40
2	222126	33.9	50
2	224497	34.1	60
2	226276	34.3	70
2	228049	34.5	70
2	228064	34.5	80
2	229923	34.7	20
2	231706	34.9	30
2	233378	35.1	40
2	235330	35.3	50
2	237121	35.5	50
2	237136	35.5	60
2	238987	35.7	20
2	240760	35.9	30
2	242597	36.1	40
2	244203	36.3	50
2	245579	36.5	50
2	245594	36.5	60
2	249997	36.929	30
2	249997	36.929	40
2	251634	37.1	50
2	253497	37.3	60
2	255268	37.5	60
2	255283	37.5	70
2	257148	37.7	20
2	258932	37.9	30
2	260762	38.1	40
2	264057	38.5	40
2	264771	38.53	50
2	264771	38.53	60
2	266126	38.7	30
2	270225	39.13	40
2	270225	39.13	50
2	271553	39.3	60
2	273410	39.5	60
2	273425	39.5	70
2	275103	39.7	20
2	277071	39.9	30
2	278908	40.1	40
2	280103	40.3	50
2	281243	40.5	50
2	281258	40.5	60
2	286305	40.93	40
2	286305	40.93	50
2	287357	41.1	60
2	289004	41.3	70
2	291514	41.5	70
2	291529	41.5	80
2	293473	41.7	20
2	295097	41.9	30
2	296918	42.1	40
2	298622	42.3	50
2	300091	42.5	50
2	300106	42.5	60
2	302301	42.7	40
2	304351	42.9	50
2	306207	43.1	60
2	307986	43.3	70
2	309598	43.5	70
2	309613	43.5	80
2	311645	43.7	20
2	313436	43.9	30
2	315263	44.1	40
2	317042	44.3	50
2	318821	44.5	50
2	318836	44.5	60
2	320685	44.7	20
2	322190	44.9	30
2	323710	45.1	40
2	326025	45.3	50
2	327889	45.5	50
2	327904	45.5	60
2	331925	45.929	20
2	331925	45.929	30
2	333319	46.1	40
2	335182	46.3	50
2	336778	46.5	50
2	336793	46.5	60
2	341020	46.931	20
2	341020	46.931	30
2	342377	47.1	40
2	344254	47.3	50
2	345744	47.5	50
2	345759	47.5	60
2	347283	47.7	30
2	349496	47.9	40
2	351553	48.1	50
2	353352	48.3	60
2	354855	48.5	60
2	354870	48.5	70
2	356407	48.7	30
2	358372	48.9	40
2	360035	49.1	50
2	362408	49.3	60
2	364249	49.5	60
2	364264	49.5	70
2	366121	49.7	20
2	367896	49.9	30
2	369739	50.1	40
2	373014	50.5	40
2	373616	50.533	50
2	373616	50.533	60
2	374930	50.7	30
2	376958	50.9	40
2	378817	51.1	50
2	380415	51.3	60
2	381788	51.5	60
2	381803	51.5	70
2	383036	51.7	30
2	385103	51.9	40
2	390279	52.5	40
2	391527	52.607	50
2	391527	52.607	60
2	391527	52.607	70
2	392843	52.7	40
2	395188	52.9	50
2	396736	53.1	60
2	398212	53.3	70
2	400571	53.5	70
2	400586	53.5	80
2	402047	53.7	20
2	403708	53.9	30
2	406052	54.1	40
2	407940	54.3	50
2	409438	54.5	50
2	409453	54.5	60
2	410985	54.7	30
2	413319	54.9	40
2	415239	55.1	50
2	417016	55.3	60
2	418793	55.5	60
2	418808	55.5	70
2	420371	55.7	20
2	421854	55.9	30
2	424271	56.1	40
2	427606	56.5	40
2	428211	56.535	50
2	428211	56.535	60
2	429500	56.7	30
2	431368	56.9	40
2	433401	57.1	50
2	435203	57.3	60
2	436981	57.5	60
2	436996	57.5	70
2	438837	57.7	20
2	440626	57.9	30
2	442463	58.1	40
2	445172	58.5	40
2	447077	58.805	10
2	447077	58.805	20
2	447077	58.805	30
2	448150	58.9	40
2	450754	59.1	50
2	452994	59.3	60
2	454556	59.5	60
2	454571	59.5	70
2	456598	59.7	40
2	458851	59.9	50
2	462907	60.335	60
2	462907	60.335	70
2	464200	60.5	70
2	464215	60.5	80
2	465861	60.7	20
2	467335	60.9	30
2	469752	61.1	40
2	471589	61.3	50
2	472782	61.5	50
2	472797	61.5	60
2	477229	61.931	30
2	477229	61.931	40
2	478837	62.1	50
2	480706	62.3	60
2	482481	62.5	60
2	482496	62.5	70
2	484048	62.7	20
2	485244	62.9	30
2	487177	63.1	40
2	489711	63.3	50
2	491434	63.5	50
2	493771	63.73	10
2	493771	63.73	20
2	494931	63.9	30
2	496519	64.1	40
2	498890	64.3	50
2	500435	64.5	50
2	500450	64.5	60
2	502197	64.7	30
2	504252	64.9	40
2	506263	65.1	50
2	508042	65.3	60
2	509813	65.5	60
2	509828	65.5	70
2	511683	65.7	20
2	513472	65.9	30
2	515132	66.1	40
2	517092	66.3	50
2	518700	66.5	50
2	518715	66.5	60
2	520745	66.7	20
2	522536	66.9	30
2	524089	67.1	40
2	525560	67.3	50
2	527679	67.5	50
2	527694	67.5	60
2	529811	67.7	20
2	533840	68.13	30
2	533840	68.13	40
2	535168	68.3	50
2	536856	68.5	50
2	536871	68.5	60
2	538618	68.7	20
2	540082	68.9	30
2	542333	69.1	40
2	544352	69.3	50
2	546129	69.5	50
2	546144	69.5	60
2	547836	69.7	20
2	549780	69.9	30
2	553841	70.336	40
2	553841	70.336	50
2	555133	70.5	50
2	555148	70.5	60
2	559271	70.931	20
2	559271	70.931	30
2	560639	71.1	40
2	563406	71.5	40
2	563983	71.532	50
2	563983	71.532	60
2	565140	71.7	40
2	566462	71.9	50
2	572257	72.5	50
2	573446	72.607	60
2	573446	72.607	70
2	573446	72.607	80
2	574669	72.7	90
2	576489	72.9	100
2	577969	73.1	110
2	579413	73.3	120
2	580678	73.5	120
2	580693	73.5	130
2	582350	73.7	20
2	583788	73.9	30
2	587116	74.416	40
2	587116	74.416	50
2	587916	74.5	50
2	587930	74.5	60
2	589515	74.7	20
2	591120	74.9	30
2	592626	75.1	40
2	594070	75.3	50
2	595488	75.5	50
2	595502	75.5	60
2	596988	75.7	20
2	598434	75.9	30
2	599926	76.1	40
2	602515	76.5	40
2	603049	76.53	50
2	603049	76.53	60
2	604222	76.7	30
2	605738	76.9	40
2	607228	77.1	50
2	608672	77.3	60
2	610092	77.5	60
2	610107	77.5	70
2	611302	77.7	20
2	614791	78.131	30
2	614791	78.131	40
2	615935	78.3	50
2	617272	78.5	50
2	617286	78.5	60
2	618933	78.7	20
2	620392	78.9	30
2	621867	79.1	40
2	623150	79.3	50
2	624757	79.5	50
2	624771	79.5	60
2	626253	79.7	20
2	627695	79.9	30
2	629002	80.1	40
2	630433	80.3	50
2	632073	80.5	50
2	632087	80.5	60
2	633573	80.7	20
2	634838	80.9	30
2	636213	81.1	40
2	637568	81.3	50
2	639424	81.5	50
2	639438	81.5	60
2	640930	81.7	20
2	642388	81.9	30
2	643866	82.1	40
2	645314	82.3	50
2	646736	82.5	50
2	646750	82.5	60
2	648242	82.7	20
2	651405	83.214	30
2	653099	83.5	30
2	653625	83.545	40
2	653625	83.545	50
2	653625	83.545	60
2	655288	83.7	40
2	657053	83.9	50
2	658529	84.1	60
2	659972	84.3	70
2	661407	84.5	70
2	661421	84.5	80
2	662895	84.7	20
2	664053	84.9	30
2	665762	85.1	40
2	667123	85.3	50
2	668722	85.5	50
2	668736	85.5	60
2	670234	85.7	20
2	671682	85.9	30
2	673166	86.1	40
2	674429	86.3	50
2	676024	86.5	50
2	676038	86.5	60
2	677552	86.7	20
2	678982	86.9	30
2	680468	87.1	40
2	683071	87.5	40
2	683591	87.529	50
2	683591	87.529	60
2	684772	87.7	30
2	686006	87.9	40
2	687747	88.1	50
2	689243	88.3	60
2	690508	88.5	60
2	690522	88.5	70
2	692193	88.7	20
2	693629	88.9	30
2	694829	89.1	40
2	696512	89.3	50
2	698020	89.5	50
2	698034	89.5	60
2	699224	89.7	20
2	700921	89.9	30
2	702300	90.1	40
2	703901	90.3	50
2	705192	90.5	50
2	705206	90.5	60
2	708401	90.929	20
2	708401	90.929	30
2	709544	91.1	40
2	711263	91.3	50
2	712683	91.5	50
2	712697	91.5	60
2	714183	91.7	20
2	717200	92.136	30
2	718483	92.376	40
2	718483	92.376	50
2	719542	92.5	50
2	719556	92.5	60
2	721537	92.7	20
2	722699	92.9	30
2	724446	93.1	40
2	725958	93.3	50
2	727090	93.5	50
2	727104	93.5	60
2	728847	93.7	30
2	732075	94.133	40
2	732075	94.133	50
2	733213	94.3	60
2	734741	94.5	60
2	734755	94.5	70
2	736223	94.7	20
2	737671	94.9	30
2	739153	95.1	40
2	740589	95.3	50
2	742025	95.5	50
2	742039	95.5	60
2	743529	95.7	20
2	744969	95.9	30
2	746449	96.1	40
2	747887	96.3	50
2	749321	96.5	50
2	749335	96.5	60
2	750813	96.7	20
2	752084	96.9	30
2	753727	97.1	40
2	755195	97.3	50
2	756617	97.5	50
2	756632	97.5	60
2	759642	97.932	20
2	759642	97.932	30
2	761032	98.1	40
2	762560	98.3	50
2	763690	98.5	50
2	765695	98.729	20
2	765695	98.729	30
2	766899	98.9	40
2	768457	99.1	50
2	769734	99.3	60
2	771347	99.5	60
2	771361	99.5	70
2	772845	99.7	20
2	775995	100.13	30
2	775995	100.13	40
2	777155	100.3	50
2	778496	100.5	50
2	778510	100.5	60
2	781660	100.939	20
2	781660	100.939	30
2	782489	101.1	40
2	784342	101.3	50
2	786058	101.5	50
2	786072	101.5	60
2	787548	101.7	70
2	788820	101.9	30
2	790166	102.1	40
2	791717	102.3	50
2	793411	102.5	50
2	793425	102.5	60
2	794742	102.7	20
2	796355	102.9	30
2	799509	103.33	40
2	799509	103.33	50
2	800653	103.5	50
2	800667	103.5	60
2	802064	103.7	20
2	803665	103.9	30
2	805161	104.1	40
2	806609	104.3	50
2	808027	104.5	50
2	808041	104.5	60
2	809533	104.7	20
2	810794	104.9	30
2	812177	105.1	40
2	813696	105.3	50
2	815204	105.5	50
2	815218	105.5	60
2	816890	105.7	20
2	818342	105.9	30
2	819838	106.1	40
2	821264	106.3	50
2	822535	106.5	50
2	822549	106.5	60
2	825874	106.93	20
2	825874	106.93	30
2	827062	107.1	40
2	828433	107.3	50
2	830030	107.5	50
2	830044	107.5	60
2	831361	107.7	20
2	832982	107.9	30
2	834464	108.1	40
2	835902	108.3	50
2	837344	108.5	50
2	837358	108.5	60
2	838542	108.7	20
2	841952	109.129	30
2	841952	109.129	40
2	843206	109.3	50
2	844718	109.5	50
2	844732	109.5	60
2	846200	109.7	20
2	847654	109.9	30
2	849140	110.1	40
2	851445	110.5	40
2	852436	110.615	10
2	854174	110.85	20
2	854174	110.85	30
2	854671	110.9	40
2	856478	111.1	50
2	857639	111.3	60
2	859309	111.5	60
2	859323	111.5	70
2	860899	111.7	20
2	864041	112.132	30
2	864041	112.132	40
2	866428	112.5	40
2	866957	112.53	50
2	866957	112.53	60
2	869772	112.931	30
2	869772	112.931	40
2	870786	113.1	50
2	872484	113.3	60
2	874072	113.5	60
2	874086	113.5	70
2	875576	113.7	20
2	877006	113.9	30
2	880034	114.333	40
2	880034	114.333	50
2	881131	114.5	50
2	881145	114.5	60
2	882872	114.7	20
2	884336	114.9	30
2	885643	115.1	40
2	887083	115.3	50
2	888714	115.5	50
2	890183	115.731	10
2	890183	115.731	20
2	891240	115.9	30
2	893134	116.1	40
2	894431	116.3	50
2	895685	116.5	50
2	895699	116.5	60
2	897540	116.7	20
2	899008	116.9	30
2	902323	117.414	40
2	902323	117.414	50
2	903126	117.5	50
2	903140	117.5	60
2	904894	117.7	20
2	906344	117.9	30
2	907820	118.1	40
2	910113	118.5	40
2	911767	118.705	10
2	911767	118.705	20
2	911767	118.705	30
2	913590	118.9	40
2	915164	119.1	50
2	916604	119.3	60
2	918026	119.5	60
2	918040	119.5	70
2	919239	119.7	20
2	920890	119.9	30
2	922299	120.1	40
2	925037	120.5	40
2	925614	120.529	50
2	925614	120.529	60
2	926817	120.7	70
2	929933	121.13	40
2	929933	121.13	50
2	930911	121.3	60
2	932595	121.5	60
2	932610	121.5	70
2	934243	121.7	20
2	935391	121.9	30
2	937126	122.1	40
2	938463	122.3	50
2	940058	122.5	50
2	940072	122.5	60
2	941576	122.7	20
2	943020	122.9	30
2	946207	123.336	40
2	947088	123.5	40
2	947637	123.566	50
2	949333	123.8	20
2	949333	123.8	30
2	950277	123.9	40
2	951953	124.1	50
2	953391	124.3	60
2	954819	124.5	60
2	954833	124.5	70
2	956317	124.7	20
2	957759	124.9	30
2	959235	125.1	40
2	961471	125.5	40
2	962168	125.535	50
2	962168	125.535	60
2	963509	125.7	30
2	965113	125.9	40
2	966585	126.1	50
2	968035	126.3	60
2	969461	126.5	60
2	969475	126.5	70
2	970951	126.7	20
2	972411	126.9	30
2	973887	127.1	40
2	975327	127.3	50
2	976765	127.5	50
2	976779	127.5	60
2	978082	127.7	20
2	979545	127.9	30
2	981205	128.1	40
2	983808	128.5	40
2	984385	128.544	50
2	984385	128.544	60
2	985513	128.7	30
2	987037	128.9	40
2	988521	129.1	50
2	989950	129.3	60
2	991053	129.5	60
2	991067	129.5	70
2	993119	129.938	70
2	993119	129.938	80
2	993769	130.1	90
2	994988	130.3	100
2	996639	130.5	100
2	996652	130.5	110
2	997777	130.7	20
2	998878	130.9	30
2	1000017	131.1	40
2	1001106	131.3	50
2	1002195	131.5	50
2	1002208	131.5	60
2	1004490	131.934	20
2	1005748	132.165	30
2	1005748	132.165	40
2	1006574	132.3	50
2	1007791	132.5	50
2	1007804	132.5	60
2	1008919	132.7	20
2	1010014	132.9	30
2	1011153	133.1	40
2	1012244	133.3	50
2	1013162	133.5	50
2	1013175	133.5	60
2	1015535	133.935	20
2	1015535	133.935	30
2	1017952	134.423	40
2	1017952	134.423	50
2	1018643	134.5	50
2	1018656	134.5	60
2	1020097	134.7	20
2	1021186	134.9	30
2	1022027	135.1	40
2	1024272	135.5	40
2	1024644	135.537	50
2	1024644	135.537	60
2	1025619	135.7	30
2	1026786	135.9	40
2	1027928	136.1	50
2	1029032	136.3	60
2	1030111	136.5	60
2	1031317	136.732	10
2	1031317	136.732	20
2	1032278	136.9	30
2	1033499	137.1	40
2	1034592	137.3	50
2	1035675	137.5	50
2	1035688	137.5	60
2	1036813	137.7	20
2	1037898	137.9	30
2	1038755	138.1	40
2	1040096	138.3	50
2	1041247	138.5	50
2	1041260	138.5	60
2	1042377	138.7	20
2	1043474	138.9	30
2	1044609	139.1	40
2	1045416	139.3	50
2	1046753	139.5	50
2	1046766	139.5	60
2	1048953	139.932	20
2	1048953	139.932	30
2	1050151	140.1	40
2	1051024	140.3	50
2	1052369	140.5	50
2	1052382	140.5	60
2	1053565	140.7	20
2	1054364	140.9	30
2	1055745	141.1	40
2	1056922	141.3	50
2	1058007	141.5	50
2	1058020	141.5	60
2	1059141	141.7	20
2	1060230	141.9	30
2	1061377	142.1	40
2	1062472	142.3	50
2	1063555	142.5	50
2	1063568	142.5	60
2	1064685	142.7	20
2	1065619	142.9	30
2	1066927	143.1	40
2	1068020	143.3	50
2	1069121	143.5	50
2	1070308	143.729	60
2	1070308	143.729	70
2	1071280	143.9	30
2	1073658	144.33	40
2	1073658	144.33	50
2	1074609	144.5	50
2	1074622	144.5	60
2	1075656	144.7	20
2	1076932	144.9	30
2	1078073	145.1	40
2	1079158	145.3	50
2	1080082	145.5	50
2	1080095	145.5	60
2	1081397	145.7	20
2	1083699	146.133	30
2	1083699	146.133	40
2	1084658	146.3	50
2	1085823	146.5	50
2	1085836	146.5	60
2	1086959	146.7	20
2	1088058	146.9	30
2	1089195	147.1	40
2	1090123	147.3	50
2	1091383	147.5	50
2	1091396	147.5	60
2	1092521	147.7	20
2	1093612	147.9	30
2	1094745	148.1	40
2	1095834	148.3	50
2	1096766	148.5	50
2	1096779	148.5	60
2	1098071	148.7	20
2	1099160	148.9	30
2	1100317	149.1	40
2	1101392	149.3	50
2	1102487	149.5	50
2	1102500	149.5	60
2	1103329	149.7	20
2	1104656	149.9	30
2	1107046	150.338	40
2	1107046	150.338	50
2	1107995	150.5	50
2	1108008	150.5	60
2	1109211	150.7	20
2	1110300	150.9	30
2	1111441	151.1	40
2	1112546	151.3	50
2	1113454	151.5	50
2	1113467	151.5	60
2	1114765	151.7	20
2	1115570	151.9	30
2	1116951	152.1	40
2	1118120	152.3	50
2	1118909	152.5	50
2	1118922	152.5	60
2	1120283	152.7	30
2	1121164	152.9	40
2	1122557	153.1	50
2	1123722	153.3	60
2	1124801	153.5	60
2	1124814	153.5	70
2	1125633	153.7	20
2	1126980	153.9	30
2	1128026	154.1	40
2	1129296	154.3	50
2	1130385	154.5	50
2	1130398	154.5	60
2	1131517	154.7	20
2	1132600	154.9	30
2	1133745	155.1	40
2	1134677	155.3	50
2	1135937	155.5	50
2	1135950	155.5	60
2	1137083	155.7	20
2	1138162	155.9	30
2	1139305	156.1	40
2	1141099	156.5	40
2	1141569	156.537	50
2	1141569	156.537	60
2	1142587	156.7	30
2	1145048	157.244	40
2	1145048	157.244	50
2	1145619	157.3	60
2	1147136	157.5	60
2	1147149	157.5	70
2	1148272	157.7	20
2	1149357	157.9	30
2	1150508	158.1	40
2	1151599	158.3	50
2	1152690	158.5	50
2	1152703	158.5	60
2	1153818	158.7	20
2	1154609	158.9	30
2	1155988	159.1	40
2	1157169	159.3	50
2	1158258	159.5	50
2	1158271	159.5	60
2	1160553	159.93	20
2	1160553	159.93	30
2	1161554	160.1	40
2	1162737	160.3	50
2	1163822	160.5	50
2	1163835	160.5	60
2	1164958	160.7	20
2	1166049	160.9	30
2	1167177	161.1	40
2	1167987	161.3	50
2	1169326	161.5	50
2	1169339	161.5	60
2	1170516	161.7	20
2	1171631	161.9	30
2	1172762	162.1	40
2	1174667	162.5	40
2	1175039	162.533	50
2	1175039	162.533	60
2	1176006	162.7	30
2	1177185	162.9	40
2	1178322	163.1	50
2	1180237	163.5	50
2	1180599	163.529	50
2	1180599	163.529	60
2	1181568	163.7	30
2	1182743	163.9	40
2	1184895	164.332	50
2	1184895	164.332	60
2	1186026	164.5	60
2	1186039	164.5	70
2	1186950	164.7	20
2	1189456	165.134	30
2	1189456	165.134	40
2	1190229	165.3	50
2	1191650	165.5	50
2	1191663	165.5	60
2	1192856	165.7	20
2	1193951	165.9	30
2	1195090	166.1	40
2	1196177	166.3	50
2	1197270	166.5	50
2	1197283	166.5	60
2	1198104	166.7	20
2	1199449	166.9	30
2	1200672	167.1	40
2	1201763	167.3	50
2	1202251	167.5	50
2	1202265	167.5	60
2	1203709	167.7	30
2	1205098	167.9	40
2	1206241	168.1	50
2	1208136	168.5	50
2	1208514	168.533	60
2	1208514	168.533	70
2	1209479	168.7	30
2	1210656	168.9	40
2	1211803	169.1	50
2	1212600	169.3	60
2	1213933	169.5	60
2	1213946	169.5	70
2	1215133	169.7	20
2	1216232	169.9	30
2	1217369	170.1	40
2	1218464	170.3	50
2	1219561	170.5	50
2	1219574	170.5	60
2	1220685	170.7	20
2	1221784	170.9	30
2	1222923	171.1	40
2	1224016	171.3	50
2	1225101	171.5	50
2	1225114	171.5	60
2	1226229	171.7	20
2	1227320	171.9	30
2	1228173	172.1	40
2	1229510	172.3	50
2	1230677	172.5	50
2	1230690	172.5	60
2	1231803	172.7	20
2	1232908	172.9	30
2	1234041	173.1	40
2	1235130	173.3	50
2	1235925	173.5	50
2	1235938	173.5	60
2	1237309	173.7	30
2	1238472	173.9	40
2	1239615	174.1	50
2	1240704	174.3	60
2	1241789	174.5	60
2	1241802	174.5	70
2	1242925	174.7	20
2	1244016	174.9	30
2	1244988	175.1	40
vector 15 FastSMRModel.logicComputer[0].node[6] QdLengthVector:vector ETV
attr source QdLength
attr title "Qd Length, vector"
vector 16 FastSMRModel.logicComputer[0].node[5] QdLengthVector:vector ETV
attr source QdLength
attr title "Qd Length, vector"
vector 17 FastSMRModel.logicComputer[0].node[7] QdLengthVector:vector ETV
attr source QdLength
attr title "Qd Length, vector"
4	5670	10.1	30
4	6982	10.3	40
4	9443	10.5	40
4	9458	10.5	50
4	15136	11.123	20
4	15136	11.123	30
4	15136	11.123	40
4	16813	11.3	50
4	18664	11.5	50
4	18679	11.5	60
4	20524	11.7	70
4	22317	11.9	30
4	23866	12.1	40
4	25341	12.3	50
4	27587	12.5	50
4	27602	12.5	60
4	29321	12.7	70
4	31050	12.9	30
4	32642	13.1	40
4	34729	13.3	50
4	36541	13.5	50
4	36556	13.5	60
4	38636	13.7	70
4	44032	14.324	40
4	44032	14.324	50
4	44032	14.324	60
4	45868	14.5	60
4	45883	14.5	70
4	47812	14.7	70
4	49601	14.9	30
4	51265	15.1	40
4	53239	15.3	50
4	54738	15.5	50
4	54753	15.5	60
4	56284	15.7	70
4	58596	15.9	40
4	60522	16.1	50
4	62032	16.3	60
4	63500	16.5	60
4	63515	16.5	70
4	68893	17.119	40
4	68893	17.119	50
4	68893	17.119	60
4	71098	17.3	70
4	73215	17.5	70
4	73230	17.5	80
4	75081	17.7	90
4	76585	17.9	30
4	78635	18.1	40
4	80508	18.3	50
4	82267	18.5	50
4	85692	18.919	10
4	85692	18.919	20
4	85692	18.919	30
4	87557	19.1	40
4	89160	19.3	50
4	90781	19.5	50
4	90796	19.5	60
4	92459	19.7	70
4	94168	19.9	50
4	96753	20.1	60
4	98197	20.3	70
4	99898	20.5	70
4	99913	20.5	80
4	102147	20.7	90
4	104254	20.9	50
4	106109	21.1	60
4	107888	21.3	70
4	109398	21.5	70
4	109413	21.5	80
4	115247	22.123	30
4	115247	22.123	40
4	115247	22.123	50
4	118474	22.5	50
4	120713	22.724	10
4	120713	22.724	20
4	124200	23.144	30
4	124200	23.144	40
4	124200	23.144	50
4	125758	23.3	60
4	127624	23.5	60
4	127639	23.5	70
4	129207	23.7	70
4	131527	23.9	40
4	133276	24.1	50
4	134798	24.3	60
4	136431	24.5	60
4	136446	24.5	70
4	138814	24.7	80
4	140436	24.9	50
4	141971	25.1	60
4	144231	25.3	70
4	145705	25.5	70
4	145720	25.5	80
4	147432	25.7	90
4	149771	25.9	40
4	151524	26.1	50
4	154986	26.5	50
4	157070	26.719	10
4	157070	26.719	20
4	157070	26.719	30
4	158750	26.9	40
4	160799	27.1	50
4	162602	27.3	60
4	164375	27.5	60
4	164390	27.5	70
4	166251	27.7	70
4	168026	27.9	30
4	169575	28.1	40
4	172506	28.5	40
4	174305	28.719	20
4	178697	29.139	30
4	181218	29.5	30
4	182228	29.562	40
4	182228	29.562	50
4	182228	29.562	60
4	182228	29.562	70
4	182228	29.562	80
4	184047	29.7	90
4	189281	30.319	70
4	189281	30.319	80
4	189281	30.319	90
4	191510	30.5	90
4	191526	30.5	100
4	193654	30.7	70
4	195437	30.9	30
4	196997	31.1	40
4	198999	31.3	50
4	200683	31.5	50
4	200698	31.5	60
4	202727	31.7	70
4	204342	31.9	30
4	206334	32.1	40
4	208131	32.3	50
4	209910	32.5	50
4	209925	32.5	60
4	211782	32.7	70
4	213565	32.9	30
4	217757	33.5	30
4	219314	33.723	10
4	219314	33.723	20
4	219314	33.723	30
4	219314	33.723	40
4	222130	33.9	50
4	224501	34.1	60
4	226280	34.3	70
4	228053	34.5	70
4	228068	34.5	80
4	229927	34.7	70
4	231710	34.9	30
4	233382	35.1	40
4	235334	35.3	50
4	237125	35.5	50
4	237140	35.5	60
4	238991	35.7	70
4	240764	35.9	30
4	242601	36.1	40
4	245583	36.5	40
4	247237	36.721	10
4	247237	36.721	20
4	247237	36.721	30
4	249299	36.9	40
4	251638	37.1	50
4	253501	37.3	60
4	255272	37.5	60
4	255287	37.5	70
4	257152	37.7	70
4	258936	37.9	30
4	260766	38.1	40
4	262380	38.3	50
4	264061	38.5	50
4	264076	38.5	60
4	266130	38.7	70
4	267999	38.9	40
4	269573	39.1	50
4	271557	39.3	60
4	273414	39.5	60
4	273429	39.5	70
4	275107	39.7	70
4	277075	39.9	30
4	281247	40.5	30
4	281838	40.521	40
4	281838	40.521	50
4	281838	40.521	60
4	284091	40.7	70
4	285885	40.9	50
4	287361	41.1	60
4	289008	41.3	70
4	291518	41.5	70
4	291533	41.5	80
4	293477	41.7	70
4	295101	41.9	30
4	296922	42.1	40
4	298626	42.3	50
4	300095	42.5	50
4	300110	42.5	60
4	302305	42.7	70
4	304355	42.9	50
4	306211	43.1	60
4	307990	43.3	70
4	309602	43.5	70
4	309617	43.5	80
4	311649	43.7	90
4	313440	43.9	30
4	315267	44.1	40
4	317046	44.3	50
4	318825	44.5	50
4	318840	44.5	60
4	320689	44.7	70
4	322194	44.9	30
4	323714	45.1	40
4	326029	45.3	50
4	327893	45.5	50
4	327908	45.5	60
4	329765	45.7	70
4	331269	45.9	30
4	333323	46.1	40
4	335186	46.3	50
4	336782	46.5	50
4	336797	46.5	60
4	338813	46.7	70
4	340351	46.9	30
4	342381	47.1	40
4	345748	47.5	40
4	347850	47.722	10
4	347850	47.722	20
4	347850	47.722	30
4	349500	47.9	40
4	351557	48.1	50
4	353356	48.3	60
4	354859	48.5	60
4	354874	48.5	70
4	360703	49.12	30
4	360703	49.12	40
4	360703	49.12	50
4	362412	49.3	60
4	364253	49.5	60
4	364268	49.5	70
4	366125	49.7	80
4	367900	49.9	30
4	369743	50.1	40
4	371524	50.3	50
4	373018	50.5	50
4	373033	50.5	60
4	374934	50.7	70
4	376962	50.9	40
4	378821	51.1	50
4	381792	51.5	50
4	383552	51.719	10
4	383552	51.719	20
4	383552	51.719	30
4	385107	51.9	40
4	390283	52.5	40
4	390721	52.523	50
4	390721	52.523	60
4	390721	52.523	70
4	392847	52.7	80
4	398868	53.319	50
4	398868	53.319	60
4	398868	53.319	70
4	400575	53.5	70
4	400590	53.5	80
4	402051	53.7	70
4	403712	53.9	30
4	406056	54.1	40
4	407944	54.3	50
4	409442	54.5	50
4	409457	54.5	60
4	410989	54.7	70
4	413323	54.9	40
4	415243	55.1	50
4	417020	55.3	60
4	418797	55.5	60
4	422510	55.919	10
4	422510	55.919	20
4	422510	55.919	30
4	424275	56.1	40
4	426114	56.3	50
4	427610	56.5	50
4	427625	56.5	60
4	429504	56.7	70
4	431372	56.9	40
4	433405	57.1	50
4	435207	57.3	60
4	436985	57.5	60
4	437000	57.5	70
4	438841	57.7	70
4	440630	57.9	30
4	442467	58.1	40
4	445176	58.5	40
4	446440	58.719	50
4	446440	58.719	60
4	451558	59.14	30
4	451558	59.14	40
4	454560	59.5	40
4	455410	59.563	50
4	455410	59.563	60
4	455410	59.563	70
4	456602	59.7	80
4	458855	59.9	50
4	460716	60.1	60
4	462218	60.3	70
4	464204	60.5	70
4	467995	60.918	10
4	467995	60.918	20
4	467995	60.918	30
4	469756	61.1	40
4	472786	61.5	40
4	474442	61.721	10
4	474442	61.721	20
4	474442	61.721	30
4	476516	61.9	40
4	478841	62.1	50
4	480710	62.3	60
4	482485	62.5	60
4	485639	62.92	10
4	485639	62.92	20
4	485639	62.92	30
4	487181	63.1	40
4	489715	63.3	50
4	491438	63.5	50
4	491453	63.5	60
4	497185	64.12	20
4	497185	64.12	30
4	497185	64.12	40
4	498894	64.3	50
4	500439	64.5	50
4	500454	64.5	60
4	502201	64.7	70
4	504256	64.9	40
4	506267	65.1	50
4	508046	65.3	60
4	509817	65.5	60
4	509832	65.5	70
4	511687	65.7	70
4	513476	65.9	30
4	515136	66.1	40
4	517096	66.3	50
4	518704	66.5	50
4	518719	66.5	60
4	520749	66.7	70
4	522540	66.9	30
4	524093	67.1	40
4	525564	67.3	50
4	527683	67.5	50
4	527698	67.5	60
4	529815	67.7	70
4	531608	67.9	30
4	533180	68.1	40
4	535172	68.3	50
4	536860	68.5	50
4	540625	68.919	10
4	540625	68.919	20
4	540625	68.919	30
4	542337	69.1	40
4	544356	69.3	50
4	546133	69.5	50
4	546148	69.5	60
4	547840	69.7	70
4	549784	69.9	30
4	551637	70.1	40
4	553145	70.3	50
4	555137	70.5	50
4	555152	70.5	60
4	557079	70.7	70
4	558595	70.9	30
4	560643	71.1	40
4	562226	71.3	50
4	563410	71.5	50
4	566991	71.921	30
4	566991	71.921	40
4	566991	71.921	50
4	572260	72.5	50
4	572696	72.522	60
4	572696	72.522	70
4	572696	72.522	80
4	574672	72.7	90
4	576492	72.9	100
4	577972	73.1	110
4	579416	73.3	120
4	580681	73.5	120
4	580696	73.5	130
4	582353	73.7	20
4	583791	73.9	30
4	586551	74.332	40
4	586551	74.332	50
4	587919	74.5	50
4	587933	74.5	60
4	589518	74.7	20
4	591123	74.9	30
4	592629	75.1	40
4	594073	75.3	50
4	595491	75.5	50
4	595505	75.5	60
4	596991	75.7	20
4	598437	75.9	30
4	599929	76.1	40
4	601367	76.3	50
4	602518	76.5	50
4	602532	76.5	60
4	604225	76.7	30
4	605741	76.9	40
4	607231	77.1	50
4	608675	77.3	60
4	610095	77.5	60
4	611852	77.729	10
4	611852	77.729	20
4	612998	77.9	30
4	614287	78.1	40
4	615938	78.3	50
4	617275	78.5	50
4	617289	78.5	60
4	618936	78.7	20
4	620395	78.9	30
4	621870	79.1	40
4	623153	79.3	50
4	624760	79.5	50
4	624774	79.5	60
4	626256	79.7	20
4	627698	79.9	30
4	629005	80.1	40
4	630436	80.3	50
4	632076	80.5	50
4	632090	80.5	60
4	633576	80.7	20
4	636523	81.13	30
4	636523	81.13	40
4	637571	81.3	50
4	639427	81.5	50
4	639441	81.5	60
4	640933	81.7	20
4	642391	81.9	30
4	643869	82.1	40
4	645317	82.3	50
4	646739	82.5	50
4	646753	82.5	60
4	648245	82.7	20
4	650961	83.129	30
4	652742	83.458	40
4	652742	83.458	50
4	653102	83.5	50
4	653116	83.5	60
4	655291	83.7	40
4	657056	83.9	50
4	658532	84.1	60
4	659975	84.3	70
4	661410	84.5	70
4	661424	84.5	80
4	664651	84.942	20
4	664651	84.942	30
4	665765	85.1	40
4	667126	85.3	50
4	668725	85.5	50
4	668739	85.5	60
4	670237	85.7	20
4	671685	85.9	30
4	673169	86.1	40
4	674432	86.3	50
4	676027	86.5	50
4	676041	86.5	60
4	677555	86.7	20
4	678985	86.9	30
4	680471	87.1	40
4	681915	87.3	50
4	683074	87.5	50
4	683088	87.5	60
4	686560	87.93	30
4	686560	87.93	40
4	687750	88.1	50
4	689246	88.3	60
4	690511	88.5	60
4	690525	88.5	70
4	692196	88.7	20
4	695355	89.129	30
4	695355	89.129	40
4	696515	89.3	50
4	698023	89.5	50
4	699762	89.729	10
4	699762	89.729	20
4	700924	89.9	30
4	702303	90.1	40
4	703904	90.3	50
4	705195	90.5	50
4	705209	90.5	60
4	706842	90.7	20
4	708041	90.9	30
4	709547	91.1	40
4	711266	91.3	50
4	712686	91.5	50
4	712700	91.5	60
4	714186	91.7	20
4	715630	91.9	30
4	716827	92.1	40
4	718059	92.3	50
4	719545	92.5	50
4	719559	92.5	60
4	723255	92.931	20
4	723255	92.931	30
4	724449	93.1	40
4	727093	93.5	40
4	727686	93.532	50
4	727686	93.532	60
4	728850	93.7	30
4	730364	93.9	40
4	731569	94.1	50
4	733216	94.3	60
4	734744	94.5	60
4	734758	94.5	70
4	736226	94.7	20
4	737674	94.9	30
4	739156	95.1	40
4	740592	95.3	50
4	742028	95.5	50
4	742042	95.5	60
4	743532	95.7	20
4	744972	95.9	30
4	746452	96.1	40
4	747890	96.3	50
4	749324	96.5	50
4	749338	96.5	60
4	750816	96.7	20
4	752087	96.9	30
4	753730	97.1	40
4	755198	97.3	50
4	756620	97.5	50
4	758129	97.73	10
4	758129	97.73	20
4	759069	97.9	30
4	761035	98.1	40
4	763693	98.5	40
4	764157	98.533	50
4	764157	98.533	60
4	765176	98.7	30
4	766902	98.9	40
4	768460	99.1	50
4	769737	99.3	60
4	771350	99.5	60
4	771364	99.5	70
4	772848	99.7	20
4	774105	99.9	30
4	775479	100.1	40
4	777158	100.3	50
4	778499	100.5	50
4	780310	100.732	10
4	780310	100.732	20
4	782911	101.131	30
4	782911	101.131	40
4	784345	101.3	50
4	786061	101.5	50
4	786075	101.5	60
4	787551	101.7	20
4	790635	102.13	30
4	790635	102.13	40
4	791720	102.3	50
4	793414	102.5	50
4	793428	102.5	60
4	794745	102.7	20
4	796358	102.9	30
4	797855	103.1	40
4	799015	103.3	50
4	800656	103.5	50
4	800670	103.5	60
4	802067	103.7	20
4	803668	103.9	30
4	805164	104.1	40
4	806612	104.3	50
4	808030	104.5	50
4	808044	104.5	60
4	809536	104.7	20
4	812590	105.129	30
4	812590	105.129	40
4	813699	105.3	50
4	815207	105.5	50
4	815221	105.5	60
4	816893	105.7	20
4	818345	105.9	30
4	819841	106.1	40
4	821267	106.3	50
4	822538	106.5	50
4	822552	106.5	60
4	824189	106.7	20
4	825376	106.9	30
4	827065	107.1	40
4	828436	107.3	50
4	830033	107.5	50
4	830047	107.5	60
4	831364	107.7	20
4	832985	107.9	30
4	834467	108.1	40
4	835905	108.3	50
4	837347	108.5	50
4	839096	108.73	10
4	840520	108.962	20
4	840520	108.962	30
4	841361	109.1	40
4	843209	109.3	50
4	844721	109.5	50
4	844735	109.5	60
4	846203	109.7	20
4	847657	109.9	30
4	849143	110.1	40
4	851448	110.5	40
4	851853	110.53	50
4	851853	110.53	60
4	853068	110.7	30
4	854674	110.9	40
4	858204	111.334	50
4	858204	111.334	60
4	859312	111.5	60
4	859326	111.5	70
4	860902	111.7	20
4	862320	111.9	30
4	863533	112.1	40
4	865182	112.3	50
4	866431	112.5	50
4	866445	112.5	60
4	868132	112.7	30
4	871477	113.148	40
4	871477	113.148	50
4	872487	113.3	60
4	874075	113.5	60
4	874089	113.5	70
4	875579	113.7	20
4	877009	113.9	30
4	878324	114.1	40
4	879666	114.3	50
4	881134	114.5	50
4	881148	114.5	60
4	882875	114.7	20
4	884339	114.9	30
4	885646	115.1	40
4	887086	115.3	50
4	888717	115.5	50
4	888731	115.5	60
4	889924	115.7	20
4	891243	115.9	30
4	893137	116.1	40
4	894434	116.3	50
4	895688	116.5	50
4	895702	116.5	60
4	897543	116.7	20
4	899011	116.9	30
4	901749	117.33	40
4	901749	117.33	50
4	903129	117.5	50
4	903143	117.5	60
4	904897	117.7	20
4	906347	117.9	30
4	907823	118.1	40
4	910116	118.5	40
4	910823	118.617	50
4	910823	118.617	60
4	911305	118.7	70
4	913593	118.9	40
4	915167	119.1	50
4	916607	119.3	60
4	918029	119.5	60
4	918043	119.5	70
4	919242	119.7	20
4	920893	119.9	30
4	924045	120.33	40
4	924045	120.33	50
4	925040	120.5	50
4	925054	120.5	60
4	926820	120.7	30
4	928179	120.9	40
4	929549	121.1	50
4	930914	121.3	60
4	932598	121.5	60
4	932613	121.5	70
4	935941	121.93	20
4	935941	121.93	30
4	937129	122.1	40
4	938466	122.3	50
4	940061	122.5	50
4	940075	122.5	60
4	941579	122.7	20
4	944639	123.133	30
4	944639	123.133	40
4	945628	123.3	50
4	947091	123.5	50
4	947105	123.5	60
4	948434	123.7	30
4	950280	123.9	40
4	951956	124.1	50
4	953394	124.3	60
4	954822	124.5	60
4	954836	124.5	70
4	956320	124.7	20
4	957762	124.9	30
4	959238	125.1	40
4	960383	125.3	50
4	961474	125.5	50
4	961488	125.5	60
4	963512	125.7	30
4	965116	125.9	40
4	966588	126.1	50
4	968038	126.3	60
4	969464	126.5	60
4	969478	126.5	70
4	970954	126.7	20
4	972414	126.9	30
4	973890	127.1	40
4	975330	127.3	50
4	976768	127.5	50
4	976782	127.5	60
4	978085	127.7	20
4	979548	127.9	30
4	981208	128.1	40
4	982660	128.3	50
4	983811	128.5	50
4	983825	128.5	60
4	985516	128.7	30
4	987040	128.9	40
4	988524	129.1	50
4	989952	129.3	60
4	991055	129.5	60
4	991069	129.5	70
4	992196	129.7	70
4	994231	130.2	80
4	994231	130.2	90
4	994990	130.3	100
4	996641	130.5	100
4	996654	130.5	110
4	997779	130.7	20
4	998880	130.9	30
4	1000019	131.1	40
4	1001108	131.3	50
4	1002197	131.5	50
4	1002210	131.5	60
4	1003331	131.7	20
4	1004143	131.9	30
4	1005239	132.1	40
4	1006576	132.3	50
4	1007793	132.5	50
4	1007806	132.5	60
4	1008921	132.7	20
4	1010016	132.9	30
4	1011155	133.1	40
4	1012246	133.3	50
4	1013164	133.5	50
4	1013177	133.5	60
4	1014303	133.7	20
4	1015303	133.9	30
4	1017492	134.331	40
4	1017492	134.331	50
4	1018645	134.5	50
4	1018658	134.5	60
4	1020099	134.7	20
4	1022306	135.13	30
4	1022306	135.13	40
4	1023206	135.3	50
4	1024274	135.5	50
4	1024287	135.5	60
4	1025621	135.7	30
4	1026788	135.9	40
4	1027930	136.1	50
4	1029034	136.3	60
4	1030113	136.5	60
4	1030126	136.5	70
4	1030974	136.7	20
4	1032280	136.9	30
4	1033501	137.1	40
4	1034594	137.3	50
4	1035677	137.5	50
4	1035690	137.5	60
4	1036815	137.7	20
4	1039147	138.131	30
4	1039147	138.131	40
4	1040098	138.3	50
4	1041249	138.5	50
4	1041262	138.5	60
4	1042379	138.7	20
4	1043476	138.9	30
4	1045816	139.331	40
4	1045816	139.331	50
4	1046755	139.5	50
4	1046768	139.5	60
4	1047782	139.7	20
4	1048611	139.9	30
4	1051420	140.33	40
4	1051420	140.33	50
4	1052371	140.5	50
4	1052384	140.5	60
4	1054764	140.933	20
4	1054764	140.933	30
4	1055747	141.1	40
4	1056924	141.3	50
4	1058009	141.5	50
4	1058022	141.5	60
4	1059143	141.7	20
4	1060232	141.9	30
4	1061379	142.1	40
4	1062474	142.3	50
4	1063557	142.5	50
4	1063570	142.5	60
4	1064687	142.7	20
4	1065621	142.9	30
4	1066929	143.1	40
4	1068022	143.3	50
4	1069123	143.5	50
4	1069136	143.5	60
4	1069970	143.7	20
4	1071282	143.9	30
4	1072501	144.1	40
4	1073313	144.3	50
4	1074611	144.5	50
4	1074624	144.5	60
4	1075658	144.7	20
4	1076934	144.9	30
4	1078075	145.1	40
4	1079160	145.3	50
4	1080084	145.5	50
4	1080097	145.5	60
4	1081399	145.7	20
4	1082482	145.9	30
4	1083356	146.1	40
4	1084660	146.3	50
4	1085825	146.5	50
4	1085838	146.5	60
4	1086961	146.7	20
4	1088060	146.9	30
4	1089197	147.1	40
4	1090125	147.3	50
4	1091385	147.5	50
4	1091398	147.5	60
4	1092523	147.7	20
4	1093614	147.9	30
4	1094747	148.1	40
4	1095836	148.3	50
4	1096768	148.5	50
4	1096781	148.5	60
4	1098073	148.7	20
4	1099162	148.9	30
4	1100319	149.1	40
4	1101394	149.3	50
4	1102489	149.5	50
4	1103727	149.731	10
4	1103727	149.731	20
4	1104658	149.9	30
4	1105880	150.1	40
4	1106697	150.3	50
4	1107997	150.5	50
4	1108010	150.5	60
4	1109213	150.7	20
4	1110302	150.9	30
4	1111443	151.1	40
4	1112548	151.3	50
4	1113456	151.5	50
4	1113469	151.5	60
4	1115962	151.931	20
4	1115962	151.931	30
4	1116953	152.1	40
4	1118911	152.5	40
4	1119330	152.533	50
4	1119330	152.533	60
4	1121556	152.931	30
4	1121556	152.931	40
4	1122559	153.1	50
4	1123724	153.3	60
4	1124803	153.5	60
4	1126035	153.731	10
4	1126035	153.731	20
4	1126982	153.9	30
4	1128028	154.1	40
4	1129298	154.3	50
4	1130387	154.5	50
4	1130400	154.5	60
4	1131519	154.7	20
4	1132602	154.9	30
4	1133747	155.1	40
4	1134679	155.3	50
4	1135939	155.5	50
4	1135952	155.5	60
4	1137085	155.7	20
4	1138164	155.9	30
4	1140393	156.344	40
4	1140393	156.344	50
4	1141101	156.5	50
4	1141114	156.5	60
4	1143719	156.93	30
4	1144648	157.159	40
4	1144648	157.159	50
4	1145621	157.3	60
4	1147138	157.5	60
4	1147151	157.5	70
4	1148274	157.7	20
4	1149359	157.9	30
4	1150510	158.1	40
4	1151601	158.3	50
4	1152692	158.5	50
4	1152705	158.5	60
4	1155035	158.941	20
4	1155035	158.941	30
4	1155990	159.1	40
4	1157171	159.3	50
4	1158260	159.5	50
4	1158273	159.5	60
4	1159390	159.7	20
4	1160208	159.9	30
4	1161556	160.1	40
4	1162739	160.3	50
4	1163824	160.5	50
4	1163837	160.5	60
4	1164960	160.7	20
4	1166051	160.9	30
4	1168389	161.335	40
4	1168389	161.335	50
4	1169328	161.5	50
4	1169341	161.5	60
4	1170518	161.7	20
4	1171633	161.9	30
4	1172764	162.1	40
4	1173861	162.3	50
4	1174669	162.5	50
4	1174682	162.5	60
4	1176008	162.7	30
4	1177187	162.9	40
4	1178324	163.1	50
4	1179414	163.3	60
4	1180239	163.5	60
4	1180252	163.5	70
4	1181570	163.7	30
4	1182745	163.9	40
4	1183721	164.1	50
4	1184554	164.3	60
4	1186028	164.5	60
4	1187332	164.729	10
4	1187332	164.729	20
4	1188281	164.9	30
4	1190631	165.331	40
4	1190631	165.331	50
4	1191652	165.5	50
4	1191665	165.5	60
4	1192858	165.7	20
4	1193953	165.9	30
4	1195092	166.1	40
4	1196179	166.3	50
4	1197272	166.5	50
4	1198500	166.732	60
4	1198500	166.732	70
4	1199451	166.9	30
4	1200674	167.1	40
4	1202253	167.5	40
4	1202528	167.529	50
4	1202528	167.529	60
4	1203711	167.7	30
4	1205100	167.9	40
4	1206243	168.1	50
4	1207329	168.3	60
4	1208138	168.5	60
4	1208152	168.5	70
4	1209481	168.7	30
4	1210658	168.9	40
4	1212998	169.33	50
4	1212998	169.33	60
4	1213935	169.5	60
4	1213948	169.5	70
4	1215135	169.7	20
4	1216234	169.9	30
4	1217371	170.1	40
4	1218466	170.3	50
4	1219563	170.5	50
4	1219576	170.5	60
4	1220687	170.7	20
4	1221786	170.9	30
4	1222925	171.1	40
4	1224018	171.3	50
4	1225103	171.5	50
4	1225116	171.5	60
4	1226231	171.7	20
4	1228569	172.131	30
4	1228569	172.131	40
4	1229512	172.3	50
4	1230679	172.5	50
4	1230692	172.5	60
4	1231805	172.7	20
4	1232910	172.9	30
4	1234043	173.1	40
4	1235927	173.5	40
4	1236350	173.532	50
4	1236350	173.532	60
4	1237311	173.7	30
4	1238474	173.9	40
4	1239617	174.1	50
4	1240706	174.3	60
4	1241791	174.5	60
4	1241804	174.5	70
4	1242927	174.7	20
4	1244018	174.9	30
4	1244990	175.1	40
4	1246274	175.3	50
4	1247056	175.5	50
4	1247068	175.5	60
4	1247826	175.7	70
4	1248578	175.9	80
4	1249378	176.1	90
4	1250125	176.3	100
4	1250874	176.5	100
4	1251357	177.01	110
4	1251357	177.01	120
4	1251357	177.01	130
4	1251857	177.1	140
4	1253344	177.3	150
4	1254630	177.5	150
4	1254642	177.5	160
4	1255755	177.7	170
4	1256720	177.9	180
4	1258025	178.1	190
4	1259483	178.3	200
4	1261067	178.5	200
4	1261079	178.5	210
4	1262807	178.7	220
4	1265199	178.9	230
4	1267967	179.1	240
4	1270380	179.3	120
4	1274514	179.5	120
4	1274526	179.5	130
4	1278497	179.7	140
4	1282351	179.9	140
4	1287067	180.456	40
4	1287067	180.456	50
4	1287491	180.5	50
4	1287503	180.5	60
4	1289714	180.7	70
4	1291517	180.9	50
4	1293359	181.1	60
4	1295152	181.3	50
4	1296941	181.5	50
4	1296953	181.5	60
4	1298519	181.7	60
4	1300386	181.9	50
4	1302417	182.1	60
4	1304228	182.3	50
4	1306011	182.5	50
4	1306023	182.5	60
4	1307830	182.7	70
4	1309400	182.9	50
4	1311278	183.1	60
4	1312693	183.3	50
4	1314841	183.5	50
4	1314853	183.5	60
4	1316339	183.7	60
4	1318289	183.9	50
4	1320436	184.1	60
4	1322434	184.3	50
4	1324048	184.5	50
4	1326539	184.821	50
4	1326539	184.821	60
4	1327140	184.9	50
4	1329567	185.1	60
4	1331574	185.3	50
4	1333182	185.5	50
4	1333194	185.5	60
4	1335188	185.7	60
4	1337005	185.9	50
3	5668	10.1	30
3	6980	10.3	40
3	9441	10.5	40
3	9456	10.5	50
3	11141	10.7	20
3	12850	10.9	30
3	14456	11.1	40
3	16811	11.3	50
3	18662	11.5	50
3	18677	11.5	60
3	20522	11.7	20
3	22315	11.9	30
3	23864	12.1	40
3	25339	12.3	50
3	27585	12.5	50
3	27600	12.5	60
3	29319	12.7	20
3	31048	12.9	30
3	32640	13.1	40
3	34727	13.3	50
3	36539	13.5	50
3	36554	13.5	60
3	38634	13.7	30
3	40511	13.9	40
3	42035	14.1	50
3	43346	14.3	60
3	45866	14.5	60
3	45881	14.5	70
3	47810	14.7	20
3	51118	15.095	30
3	51263	15.1	40
3	53237	15.3	50
3	54736	15.5	50
3	54751	15.5	60
3	56282	15.7	30
3	58594	15.9	40
3	60520	16.1	50
3	62030	16.3	60
3	63498	16.5	60
3	63513	16.5	70
3	69461	17.162	40
3	69461	17.162	50
3	69461	17.162	60
3	71096	17.3	70
3	73213	17.5	70
3	73228	17.5	80
3	75079	17.7	20
3	76583	17.9	30
3	78633	18.1	40
3	80506	18.3	50
3	82265	18.5	50
3	82280	18.5	60
3	83840	18.7	20
3	87336	19.081	30
3	87555	19.1	40
3	89158	19.3	50
3	90779	19.5	50
3	90794	19.5	60
3	92457	19.7	40
3	94166	19.9	50
3	96751	20.1	60
3	98195	20.3	70
3	99896	20.5	70
3	99911	20.5	80
3	102145	20.7	40
3	104252	20.9	50
3	106107	21.1	60
3	107886	21.3	70
3	109396	21.5	70
3	109411	21.5	80
3	111459	21.7	30
3	113047	21.9	40
3	114563	22.1	50
3	116928	22.3	60
3	118472	22.5	60
3	118487	22.5	70
3	120027	22.7	30
3	123361	23.082	40
3	123518	23.1	50
3	125756	23.3	60
3	127622	23.5	60
3	127637	23.5	70
3	129205	23.7	30
3	133105	24.084	40
3	133274	24.1	50
3	134796	24.3	60
3	136429	24.5	60
3	136444	24.5	70
3	138812	24.7	40
3	140434	24.9	50
3	141969	25.1	60
3	144229	25.3	70
3	145703	25.5	70
3	145718	25.5	80
3	147430	25.7	30
3	151357	26.084	40
3	151522	26.1	50
3	153487	26.3	60
3	154984	26.5	60
3	154999	26.5	70
3	156529	26.7	30
3	158748	26.9	40
3	160797	27.1	50
3	162600	27.3	60
3	164373	27.5	60
3	164388	27.5	70
3	166249	27.7	20
3	168024	27.9	30
3	169573	28.1	40
3	171056	28.3	50
3	172504	28.5	50
3	172519	28.5	60
3	173801	28.7	40
3	175561	28.9	50
3	177895	29.1	60
3	181073	29.484	70
3	181216	29.5	70
3	181232	29.5	80
3	184045	29.7	60
3	186061	29.9	70
3	187513	30.1	80
3	188747	30.3	90
3	191508	30.5	90
3	191524	30.5	100
3	193652	30.7	20
3	195435	30.9	30
3	196995	31.1	40
3	200522	31.483	50
3	200681	31.5	50
3	200696	31.5	60
3	202725	31.7	20
3	204340	31.9	30
3	206332	32.1	40
3	208129	32.3	50
3	209908	32.5	50
3	209923	32.5	60
3	211780	32.7	20
3	213563	32.9	30
3	215388	33.1	40
3	216611	33.3	50
3	217755	33.5	50
3	218659	33.686	30
3	218808	33.7	40
3	222128	33.9	50
3	224499	34.1	60
3	226278	34.3	70
3	228051	34.5	70
3	228066	34.5	80
3	229925	34.7	20
3	233211	35.084	30
3	233380	35.1	40
3	235332	35.3	50
3	237123	35.5	50
3	237138	35.5	60
3	238989	35.7	20
3	240762	35.9	30
3	244066	36.289	40
3	244205	36.3	50
3	245581	36.5	50
3	245596	36.5	60
3	246806	36.7	30
3	249297	36.9	40
3	251636	37.1	50
3	253499	37.3	60
3	255270	37.5	60
3	255285	37.5	70
3	257150	37.7	20
3	258934	37.9	30
3	262213	38.282	40
3	262378	38.3	50
3	264059	38.5	50
3	264074	38.5	60
3	266128	38.7	30
3	267997	38.9	40
3	269571	39.1	50
3	271555	39.3	60
3	273412	39.5	60
3	274934	39.682	10
3	275105	39.7	20
3	277073	39.9	30
3	278910	40.1	40
3	280105	40.3	50
3	281245	40.5	50
3	281260	40.5	60
3	284089	40.7	40
3	288174	41.189	50
3	288174	41.189	60
3	289006	41.3	70
3	291516	41.5	70
3	291531	41.5	80
3	293475	41.7	20
3	296753	42.081	30
3	296920	42.1	40
3	298624	42.3	50
3	300093	42.5	50
3	300108	42.5	60
3	302303	42.7	40
3	304353	42.9	50
3	306209	43.1	60
3	309443	43.484	70
3	309600	43.5	70
3	309615	43.5	80
3	311647	43.7	90
3	313438	43.9	30
3	315265	44.1	40
3	317044	44.3	50
3	318823	44.5	50
3	318838	44.5	60
3	320687	44.7	20
3	322192	44.9	30
3	323712	45.1	40
3	326027	45.3	50
3	327891	45.5	50
3	327906	45.5	60
3	329763	45.7	20
3	331267	45.9	30
3	333321	46.1	40
3	335184	46.3	50
3	336780	46.5	50
3	336795	46.5	60
3	338811	46.7	20
3	340349	46.9	30
3	342379	47.1	40
3	344256	47.3	50
3	345746	47.5	50
3	345761	47.5	60
3	347285	47.7	30
3	349498	47.9	40
3	351555	48.1	50
3	353354	48.3	60
3	354857	48.5	60
3	354872	48.5	70
3	356409	48.7	30
3	358374	48.9	40
3	360037	49.1	50
3	362410	49.3	60
3	364251	49.5	60
3	364266	49.5	70
3	366123	49.7	20
3	367898	49.9	30
3	369741	50.1	40
3	371522	50.3	50
3	373016	50.5	50
3	373031	50.5	60
3	374932	50.7	30
3	376960	50.9	40
3	378819	51.1	50
3	380417	51.3	60
3	381790	51.5	60
3	381805	51.5	70
3	383038	51.7	30
3	385105	51.9	40
3	387533	52.1	50
3	389117	52.3	60
3	390281	52.5	60
3	392562	52.682	30
3	392845	52.7	40
3	395190	52.9	50
3	396738	53.1	60
3	398214	53.3	70
3	400573	53.5	70
3	401886	53.686	10
3	402049	53.7	20
3	403710	53.9	30
3	406054	54.1	40
3	407942	54.3	50
3	409440	54.5	50
3	409455	54.5	60
3	410987	54.7	30
3	413321	54.9	40
3	415241	55.1	50
3	417018	55.3	60
3	418795	55.5	60
3	418810	55.5	70
3	420373	55.7	20
3	421856	55.9	30
3	424273	56.1	40
3	426112	56.3	50
3	427608	56.5	50
3	427623	56.5	60
3	429502	56.7	30
3	431370	56.9	40
3	433403	57.1	50
3	435205	57.3	60
3	436983	57.5	60
3	436998	57.5	70
3	438839	57.7	20
3	440628	57.9	30
3	442465	58.1	40
3	444234	58.3	50
3	445174	58.5	50
3	445189	58.5	60
3	446092	58.7	30
3	448152	58.9	40
3	450756	59.1	50
3	452996	59.3	60
3	454558	59.5	60
3	454573	59.5	70
3	456600	59.7	40
3	458853	59.9	50
3	460714	60.1	60
3	462216	60.3	70
3	464202	60.5	70
3	464217	60.5	80
3	465863	60.7	20
3	467337	60.9	30
3	469754	61.1	40
3	471591	61.3	50
3	472784	61.5	50
3	472799	61.5	60
3	474011	61.7	30
3	476514	61.9	40
3	478839	62.1	50
3	480708	62.3	60
3	482483	62.5	60
3	482498	62.5	70
3	484050	62.7	20
3	485246	62.9	30
3	487179	63.1	40
3	489713	63.3	50
3	491436	63.5	50
3	491451	63.5	60
3	493192	63.7	20
3	494933	63.9	30
3	496521	64.1	40
3	500437	64.5	40
3	501469	64.584	50
3	503172	64.766	20
3	503172	64.766	30
3	504254	64.9	40
3	506265	65.1	50
3	508044	65.3	60
3	509815	65.5	60
3	509830	65.5	70
3	511685	65.7	20
3	514969	66.085	30
3	515134	66.1	40
3	518547	66.484	50
3	518702	66.5	50
3	518717	66.5	60
3	520747	66.7	20
3	522538	66.9	30
3	524091	67.1	40
3	525562	67.3	50
3	527681	67.5	50
3	527696	67.5	60
3	529813	67.7	20
3	531606	67.9	30
3	533178	68.1	40
3	536697	68.481	50
3	536858	68.5	50
3	536873	68.5	60
3	538620	68.7	20
3	540084	68.9	30
3	542335	69.1	40
3	544354	69.3	50
3	546131	69.5	50
3	546146	69.5	60
3	547838	69.7	20
3	549782	69.9	30
3	551635	70.1	40
3	553143	70.3	50
3	555135	70.5	50
3	555150	70.5	60
3	557077	70.7	20
3	558593	70.9	30
3	560641	71.1	40
3	562224	71.3	50
3	563408	71.5	50
3	563423	71.5	60
3	565142	71.7	40
3	566464	71.9	50
3	568825	72.1	60
3	570910	72.3	70
3	572259	72.5	70
3	572273	72.5	80
3	574671	72.7	90
3	576491	72.9	100
3	577971	73.1	110
3	580531	73.487	120
3	580680	73.5	120
3	580695	73.5	130
3	582352	73.7	20
3	583790	73.9	30
3	585103	74.1	40
3	586137	74.3	50
3	587918	74.5	50
3	587932	74.5	60
3	589517	74.7	20
3	591122	74.9	30
3	592628	75.1	40
3	594072	75.3	50
3	595490	75.5	50
3	595504	75.5	60
3	596990	75.7	20
3	598436	75.9	30
3	599928	76.1	40
3	601366	76.3	50
3	602517	76.5	50
3	602531	76.5	60
3	604224	76.7	30
3	605740	76.9	40
3	607230	77.1	50
3	608674	77.3	60
3	610094	77.5	60
3	610109	77.5	70
3	611304	77.7	20
3	612997	77.9	30
3	614286	78.1	40
3	615937	78.3	50
3	617274	78.5	50
3	617288	78.5	60
3	618935	78.7	20
3	620394	78.9	30
3	622987	79.284	40
3	623152	79.3	50
3	624759	79.5	50
3	624773	79.5	60
3	626255	79.7	20
3	627697	79.9	30
3	630271	80.282	40
3	630435	80.3	50
3	632075	80.5	50
3	632089	80.5	60
3	634677	80.885	20
3	634840	80.9	30
3	637355	81.283	40
3	637570	81.3	50
3	639426	81.5	50
3	639440	81.5	60
3	640932	81.7	20
3	642390	81.9	30
3	643868	82.1	40
3	645316	82.3	50
3	646738	82.5	50
3	646752	82.5	60
3	648244	82.7	20
3	649676	82.9	30
3	650587	83.1	40
3	651900	83.3	50
3	653101	83.5	50
3	655067	83.683	30
3	655290	83.7	40
3	657055	83.9	50
3	658531	84.1	60
3	659974	84.3	70
3	661409	84.5	70
3	661423	84.5	80
3	662897	84.7	20
3	664055	84.9	30
3	665764	85.1	40
3	667125	85.3	50
3	668724	85.5	50
3	668738	85.5	60
3	670236	85.7	20
3	671684	85.9	30
3	673168	86.1	40
3	674431	86.3	50
3	676026	86.5	50
3	676040	86.5	60
3	677554	86.7	20
3	678984	86.9	30
3	680470	87.1	40
3	681914	87.3	50
3	683073	87.5	50
3	683087	87.5	60
3	684774	87.7	30
3	686008	87.9	40
3	687749	88.1	50
3	690373	88.489	60
3	690510	88.5	60
3	690524	88.5	70
3	692195	88.7	20
3	693631	88.9	30
3	694831	89.1	40
3	696514	89.3	50
3	698022	89.5	50
3	698036	89.5	60
3	699226	89.7	20
3	700923	89.9	30
3	702302	90.1	40
3	703903	90.3	50
3	705194	90.5	50
3	705208	90.5	60
3	706841	90.7	20
3	709385	91.084	30
3	709546	91.1	40
3	711265	91.3	50
3	712685	91.5	50
3	712699	91.5	60
3	714185	91.7	20
3	715629	91.9	30
3	716826	92.1	40
3	719365	92.485	50
3	719544	92.5	50
3	719558	92.5	60
3	721539	92.7	20
3	722701	92.9	30
3	724448	93.1	40
3	725960	93.3	50
3	727092	93.5	50
3	727106	93.5	60
3	728849	93.7	30
3	730363	93.9	40
3	731568	94.1	50
3	733215	94.3	60
3	734743	94.5	60
3	734757	94.5	70
3	736225	94.7	20
3	737673	94.9	30
3	739155	95.1	40
3	740591	95.3	50
3	742027	95.5	50
3	742041	95.5	60
3	743531	95.7	20
3	744971	95.9	30
3	746451	96.1	40
3	747889	96.3	50
3	749323	96.5	50
3	749337	96.5	60
3	750815	96.7	20
3	752086	96.9	30
3	753729	97.1	40
3	755197	97.3	50
3	756619	97.5	50
3	756634	97.5	60
3	758835	97.883	20
3	759068	97.9	30
3	761034	98.1	40
3	762562	98.3	50
3	763692	98.5	50
3	763706	98.5	60
3	765175	98.7	30
3	766901	98.9	40
3	769583	99.287	50
3	769736	99.3	60
3	771349	99.5	60
3	771363	99.5	70
3	772847	99.7	20
3	774104	99.9	30
3	775478	100.1	40
3	778337	100.483	50
3	778498	100.5	50
3	778512	100.5	60
3	779883	100.7	20
3	783316	101.175	30
3	783316	101.175	40
3	784344	101.3	50
3	786060	101.5	50
3	786074	101.5	60
3	787550	101.7	20
3	788822	101.9	30
3	791548	102.287	40
3	791719	102.3	50
3	793413	102.5	50
3	794571	102.684	10
3	794744	102.7	20
3	796357	102.9	30
3	797854	103.1	40
3	799014	103.3	50
3	800655	103.5	50
3	800669	103.5	60
3	802066	103.7	20
3	803667	103.9	30
3	805163	104.1	40
3	806611	104.3	50
3	808029	104.5	50
3	808043	104.5	60
3	810647	104.887	20
3	810796	104.9	30
3	812179	105.1	40
3	813698	105.3	50
3	815206	105.5	50
3	815220	105.5	60
3	816892	105.7	20
3	818344	105.9	30
3	819840	106.1	40
3	821266	106.3	50
3	822537	106.5	50
3	822551	106.5	60
3	824188	106.7	20
3	825375	106.9	30
3	828260	107.285	40
3	828435	107.3	50
3	830032	107.5	50
3	831196	107.685	10
3	831363	107.7	20
3	832984	107.9	30
3	834466	108.1	40
3	835904	108.3	50
3	837346	108.5	50
3	837360	108.5	60
3	838544	108.7	20
3	839963	108.9	30
3	841360	109.1	40
3	843208	109.3	50
3	844720	109.5	50
3	844734	109.5	60
3	846202	109.7	20
3	847656	109.9	30
3	849142	110.1	40
3	850576	110.3	50
3	851447	110.5	50
3	851461	110.5	60
3	853067	110.7	30
3	854673	110.9	40
3	856480	111.1	50
3	857641	111.3	60
3	859311	111.5	60
3	859325	111.5	70
3	860901	111.7	20
3	862319	111.9	30
3	863532	112.1	40
3	865181	112.3	50
3	866430	112.5	50
3	866444	112.5	60
3	868131	112.7	30
3	869386	112.9	40
3	870788	113.1	50
3	872486	113.3	60
3	874074	113.5	60
3	874088	113.5	70
3	875578	113.7	20
3	878152	114.082	30
3	878323	114.1	40
3	879665	114.3	50
3	881133	114.5	50
3	881147	114.5	60
3	882874	114.7	20
3	884338	114.9	30
3	886914	115.283	40
3	887085	115.3	50
3	888716	115.5	50
3	888730	115.5	60
3	891095	115.883	20
3	891242	115.9	30
3	893136	116.1	40
3	895550	116.489	50
3	895687	116.5	50
3	895701	116.5	60
3	897542	116.7	20
3	899010	116.9	30
3	900498	117.1	40
3	901365	117.3	50
3	903128	117.5	50
3	903142	117.5	60
3	904896	117.7	20
3	906346	117.9	30
3	907822	118.1	40
3	909089	118.3	50
3	910115	118.5	50
3	910129	118.5	60
3	911304	118.7	30
3	913592	118.9	40
3	915166	119.1	50
3	916606	119.3	60
3	918028	119.5	60
3	919779	119.732	10
3	919779	119.732	20
3	922144	120.087	30
3	922301	120.1	40
3	923622	120.3	50
3	925039	120.5	50
3	925053	120.5	60
3	926819	120.7	30
3	928178	120.9	40
3	929548	121.1	50
3	930913	121.3	60
3	932597	121.5	60
3	932612	121.5	70
3	934245	121.7	20
3	935393	121.9	30
3	937128	122.1	40
3	938465	122.3	50
3	940060	122.5	50
3	940074	122.5	60
3	941578	122.7	20
3	943022	122.9	30
3	944208	123.1	40
3	945627	123.3	50
3	947090	123.5	50
3	948266	123.684	20
3	948433	123.7	30
3	950279	123.9	40
3	951955	124.1	50
3	953393	124.3	60
3	954821	124.5	60
3	954835	124.5	70
3	956319	124.7	20
3	957761	124.9	30
3	959237	125.1	40
3	960382	125.3	50
3	961473	125.5	50
3	961487	125.5	60
3	963511	125.7	30
3	965115	125.9	40
3	966587	126.1	50
3	968037	126.3	60
3	969463	126.5	60
3	969477	126.5	70
3	970953	126.7	20
3	972413	126.9	30
3	973889	127.1	40
3	975329	127.3	50
3	976767	127.5	50
3	977919	127.683	10
3	979392	127.893	20
3	979547	127.9	30
3	981207	128.1	40
3	982659	128.3	50
3	983810	128.5	50
3	983824	128.5	60
3	985515	128.7	30
3	987039	128.9	40
3	988523	129.1	50
3	989951	129.3	60
3	991054	129.5	60
3	991068	129.5	70
3	992195	129.7	70
3	994521	130.243	80
3	994521	130.243	90
3	994989	130.3	100
3	996640	130.5	100
3	996653	130.5	110
3	997778	130.7	20
3	998879	130.9	30
3	1000018	131.1	40
3	1001107	131.3	50
3	1002196	131.5	50
3	1002209	131.5	60
3	1003330	131.7	20
3	1004142	131.9	30
3	1005238	132.1	40
3	1006575	132.3	50
3	1007792	132.5	50
3	1007805	132.5	60
3	1008920	132.7	20
3	1010015	132.9	30
3	1011154	133.1	40
3	1013025	133.485	50
3	1013163	133.5	50
3	1014124	133.683	10
3	1014302	133.7	20
3	1016347	134.095	30
3	1016493	134.1	40
3	1017263	134.3	50
3	1018644	134.5	50
3	1018657	134.5	60
3	1020098	134.7	20
3	1021187	134.9	30
3	1023051	135.288	40
3	1023205	135.3	50
3	1024273	135.5	50
3	1024286	135.5	60
3	1025620	135.7	30
3	1026787	135.9	40
3	1027929	136.1	50
3	1029033	136.3	60
3	1030112	136.5	60
3	1030125	136.5	70
3	1030973	136.7	20
3	1032279	136.9	30
3	1033500	137.1	40
3	1034593	137.3	50
3	1035676	137.5	50
3	1035689	137.5	60
3	1036814	137.7	20
3	1037899	137.9	30
3	1038756	138.1	40
3	1040097	138.3	50
3	1041248	138.5	50
3	1041261	138.5	60
3	1042378	138.7	20
3	1043475	138.9	30
3	1044610	139.1	40
3	1045417	139.3	50
3	1046754	139.5	50
3	1047635	139.688	10
3	1048430	139.885	20
3	1048610	139.9	30
3	1050152	140.1	40
3	1051025	140.3	50
3	1052370	140.5	50
3	1052383	140.5	60
3	1053566	140.7	20
3	1054365	140.9	30
3	1055746	141.1	40
3	1056923	141.3	50
3	1058008	141.5	50
3	1058021	141.5	60
3	1059142	141.7	20
3	1060231	141.9	30
3	1061378	142.1	40
3	1062473	142.3	50
3	1063556	142.5	50
3	1063569	142.5	60
3	1065470	142.885	20
3	1065620	142.9	30
3	1066928	143.1	40
3	1068021	143.3	50
3	1069122	143.5	50
3	1069135	143.5	60
3	1069969	143.7	20
3	1071281	143.9	30
3	1072500	144.1	40
3	1073312	144.3	50
3	1074610	144.5	50
3	1075509	144.686	10
3	1075657	144.7	20
3	1076933	144.9	30
3	1078074	145.1	40
3	1079945	145.483	50
3	1080083	145.5	50
3	1080096	145.5	60
3	1081398	145.7	20
3	1082481	145.9	30
3	1083355	146.1	40
3	1084659	146.3	50
3	1085824	146.5	50
3	1085837	146.5	60
3	1086960	146.7	20
3	1088059	146.9	30
3	1089974	147.284	40
3	1090124	147.3	50
3	1091384	147.5	50
3	1091397	147.5	60
3	1092522	147.7	20
3	1093613	147.9	30
3	1094746	148.1	40
3	1096629	148.486	50
3	1096767	148.5	50
3	1096780	148.5	60
3	1098072	148.7	20
3	1099161	148.9	30
3	1100318	149.1	40
3	1101393	149.3	50
3	1102488	149.5	50
3	1102501	149.5	60
3	1103330	149.7	20
3	1104657	149.9	30
3	1105879	150.1	40
3	1106696	150.3	50
3	1107996	150.5	50
3	1108009	150.5	60
3	1109212	150.7	20
3	1110301	150.9	30
3	1111442	151.1	40
3	1113321	151.484	50
3	1113455	151.5	50
3	1113468	151.5	60
3	1114766	151.7	20
3	1115571	151.9	30
3	1116952	152.1	40
3	1118121	152.3	50
3	1118910	152.5	50
3	1118923	152.5	60
3	1120284	152.7	30
3	1121165	152.9	40
3	1122558	153.1	50
3	1123723	153.3	60
3	1124802	153.5	60
3	1124815	153.5	70
3	1125634	153.7	20
3	1127875	154.081	30
3	1128027	154.1	40
3	1129297	154.3	50
3	1130386	154.5	50
3	1130399	154.5	60
3	1131518	154.7	20
3	1132601	154.9	30
3	1134534	155.284	40
3	1134678	155.3	50
3	1135938	155.5	50
3	1135951	155.5	60
3	1137084	155.7	20
3	1138163	155.9	30
3	1139306	156.1	40
3	1140103	156.3	50
3	1141100	156.5	50
3	1141113	156.5	60
3	1142588	156.7	30
3	1143457	156.9	40
3	1144311	157.1	50
3	1145620	157.3	60
3	1147137	157.5	60
3	1147150	157.5	70
3	1148273	157.7	20
3	1149358	157.9	30
3	1150509	158.1	40
3	1151600	158.3	50
3	1152691	158.5	50
3	1152704	158.5	60
3	1153819	158.7	20
3	1154610	158.9	30
3	1155989	159.1	40
3	1157170	159.3	50
3	1158259	159.5	50
3	1158272	159.5	60
3	1159389	159.7	20
3	1160207	159.9	30
3	1161555	160.1	40
3	1162738	160.3	50
3	1163823	160.5	50
3	1163836	160.5	60
3	1164959	160.7	20
3	1166050	160.9	30
3	1167178	161.1	40
3	1167988	161.3	50
3	1169327	161.5	50
3	1169340	161.5	60
3	1170517	161.7	20
3	1171632	161.9	30
3	1172763	162.1	40
3	1173860	162.3	50
3	1174668	162.5	50
3	1174681	162.5	60
3	1176007	162.7	30
3	1177186	162.9	40
3	1178323	163.1	50
3	1179413	163.3	60
3	1180238	163.5	60
3	1180251	163.5	70
3	1181569	163.7	30
3	1183576	164.083	40
3	1184385	164.283	50
3	1184553	164.3	60
3	1186027	164.5	60
3	1186040	164.5	70
3	1186951	164.7	20
3	1188280	164.9	30
3	1189224	165.1	40
3	1190230	165.3	50
3	1191651	165.5	50
3	1191664	165.5	60
3	1192857	165.7	20
3	1193952	165.9	30
3	1195091	166.1	40
3	1196178	166.3	50
3	1197271	166.5	50
3	1197284	166.5	60
3	1198105	166.7	20
3	1199450	166.9	30
3	1200673	167.1	40
3	1202252	167.5	40
3	1202863	167.574	10
3	1202863	167.574	20
3	1203710	167.7	30
3	1205099	167.9	40
3	1206242	168.1	50
3	1207328	168.3	60
3	1208137	168.5	60
3	1208151	168.5	70
3	1209480	168.7	30
3	1210657	168.9	40
3	1211804	169.1	50
3	1212601	169.3	60
3	1213934	169.5	60
3	1213947	169.5	70
3	1215134	169.7	20
3	1216233	169.9	30
3	1217370	170.1	40
3	1218465	170.3	50
3	1219562	170.5	50
3	1219575	170.5	60
3	1220686	170.7	20
3	1221785	170.9	30
3	1222924	171.1	40
3	1224017	171.3	50
3	1225102	171.5	50
3	1225115	171.5	60
3	1226230	171.7	20
3	1227321	171.9	30
3	1228174	172.1	40
3	1229511	172.3	50
3	1230678	172.5	50
3	1230691	172.5	60
3	1231804	172.7	20
3	1232909	172.9	30
3	1234042	173.1	40
3	1235131	173.3	50
3	1235926	173.5	50
3	1235939	173.5	60
3	1237310	173.7	30
3	1238473	173.9	40
3	1239616	174.1	50
3	1240705	174.3	60
3	1241790	174.5	60
3	1241803	174.5	70
3	1242926	174.7	20
3	1244847	175.083	30
3	1244989	175.1	40
3	1246273	175.3	50
3	1247055	175.5	50
3	1247067	175.5	60
3	1247825	175.7	70
3	1248577	175.9	80
3	1249377	176.1	90
3	1250124	176.3	100
3	1250873	176.5	100
3	1252661	177.225	110
3	1252661	177.225	120
3	1252661	177.225	130
3	1253925	177.408	140
3	1253925	177.408	150
3	1254629	177.5	150
3	1254641	177.5	160
[...]
51	6739588	961.1	50
51	6739600	961.1	60
51	6741407	961.3	70
51	6742763	961.5	50
51	6744454	961.7	60
51	6746971	962.1	40
51	6747670	962.174	40
51	6747670	962.174	50
51	6748498	962.3	60
51	6749839	962.5	50
51	6751111	962.7	60
51	6752920	962.9	60
51	6754320	963.1	60
51	6754332	963.1	70
51	6756276	963.3	60
51	6757838	963.5	70
51	6759279	963.7	80
51	6760734	963.9	50
51	6762207	964.1	50
51	6762219	964.1	60
51	6763668	964.3	60
51	6765132	964.5	70
51	6768472	964.973	40
51	6768472	964.973	50
51	6769357	965.1	50
51	6771435	965.371	50
51	6771435	965.371	60
51	6772318	965.5	50
51	6773905	965.7	60
51	6776352	966.1	40
51	6777247	966.174	40
51	6777247	966.174	50
51	6778181	966.3	60
51	6779811	966.5	50
51	6781258	966.7	60
51	6782406	966.9	60
51	6784096	967.1	60
51	6784108	967.1	70
51	6785659	967.3	60
51	6789015	967.772	30
51	6789015	967.772	40
51	6789861	967.9	50
51	6791508	968.1	50
51	6791520	968.1	60
51	6792977	968.3	60
51	6794431	968.5	50
51	6795872	968.7	60
51	6796762	968.9	50
51	6798259	969.1	50
51	6798271	969.1	60
51	6800262	969.3	60
51	6801760	969.5	50
51	6802942	969.7	60
51	6804485	969.9	50
51	6806168	970.1	50
51	6806180	970.1	60
51	6807328	970.3	60
51	6808732	970.5	50
51	6810383	970.7	60
51	6812032	970.9	50
51	6813509	971.1	50
51	6813521	971.1	60
51	6814976	971.3	70
51	6816432	971.5	80
51	6817883	971.7	60
51	6819326	971.9	50
51	6820807	972.1	50
51	6820819	972.1	60
51	6822268	972.3	60
51	6823426	972.5	50
51	6824806	972.7	60
51	6826609	972.9	50
51	6827486	973.1	50
51	6829552	974.1	40
51	6829862	974.436	20
51	6829862	974.436	30
51	6829862	974.436	40
51	6829862	974.436	50
51	6829862	974.436	60
51	6829862	974.436	70
51	6829862	974.436	80
51	6830720	974.5	90
51	6836194	974.7	100
51	6837825	974.9	110
51	6838958	975.1	110
51	6838969	975.1	120
51	6839778	975.3	130
51	6841098	975.5	50
51	6842292	975.7	60
51	6843096	975.9	50
51	6844440	976.1	50
51	6844451	976.1	60
51	6845653	976.3	70
51	6846758	976.5	50
51	6847850	976.7	60
51	6848666	976.9	50
51	6850006	977.1	50
51	6850017	977.1	60
51	6851221	977.3	60
51	6852320	977.5	50
51	6853114	977.7	60
51	6854199	977.9	50
51	6855542	978.1	50
51	6855553	978.1	60
51	6856821	978.3	60
51	6857916	978.5	60
51	6859020	978.7	70
51	6860115	978.9	50
51	6860957	979.1	50
51	6860968	979.1	60
51	6862275	979.3	60
51	6863482	979.5	50
51	6864278	979.7	60
51	6865627	979.9	50
51	6866838	980.1	50
51	6866849	980.1	60
51	6867951	980.3	60
51	6869058	980.5	60
51	6870154	980.7	70
51	6871249	980.9	50
51	6872089	981.1	50
51	6872100	981.1	60
51	6873415	981.3	60
51	6874616	981.5	50
51	6875714	981.7	60
51	6876512	981.9	50
51	6877860	982.1	50
51	6877871	982.1	60
51	6878779	982.3	60
51	6880096	982.5	50
51	6881292	982.7	60
51	6881802	982.9	50
51	6883259	983.1	50
51	6883270	983.1	60
51	6884672	983.3	70
51	6885771	983.5	50
51	6886578	983.7	60
51	6887882	983.9	50
51	6888825	984.1	50
51	6889794	984.266	50
51	6889967	984.3	60
51	6891371	984.5	50
51	6892461	984.7	60
51	6894311	985.041	50
51	6894506	985.1	50
51	6894517	985.1	60
51	6895826	985.3	60
51	6896933	985.5	50
51	6898031	985.7	60
51	6899132	985.9	50
51	6900261	986.1	50
51	6900272	986.1	60
51	6901072	986.3	60
51	6902153	986.5	50
51	6903465	986.7	60
51	6904728	986.9	50
51	6905859	987.1	50
51	6905870	987.1	60
51	6906970	987.3	60
51	6908077	987.5	50
51	6909169	987.7	60
51	6910270	987.9	50
51	6911407	988.1	50
51	6911418	988.1	60
51	6912522	988.3	60
51	6913617	988.5	50
51	6915414	988.837	40
51	6915623	988.9	50
51	6916963	989.1	50
51	6916974	989.1	60
51	6918080	989.3	60
51	6919175	989.5	50
51	6919973	989.7	60
51	6921326	989.9	50
51	6922533	990.1	50
51	6922544	990.1	60
51	6923648	990.3	60
51	6924753	990.5	60
51	6925246	990.7	70
51	6926669	990.9	50
51	6928108	991.1	50
51	6928119	991.1	60
51	6929223	991.3	60
51	6931019	991.639	60
51	6931227	991.7	70
51	6932531	991.9	50
51	6933369	992.1	50
51	6933380	992.1	60
51	6934695	992.3	60
51	6935894	992.5	50
51	6936695	992.7	60
51	6937707	992.9	50
51	6938922	993.1	50
51	6938933	993.1	60
51	6940244	993.3	60
51	6941204	993.5	50
51	6942284	993.7	60
51	6943595	993.9	50
51	6944888	994.1	50
51	6944899	994.1	60
51	6946003	994.3	60
51	6946809	994.5	60
51	6948114	994.7	70
51	6949026	994.9	50
51	6950376	995.1	50
51	6950387	995.1	60
51	6951589	995.3	60
51	6952696	995.5	50
51	6953792	995.7	60
51	6954887	995.9	50
51	6956024	996.1	50
51	6956724	996.235	50
51	6956942	996.3	60
51	6958248	996.5	50
51	6959350	996.7	60
51	6960445	996.9	50
51	6961582	997.1	50
51	6962290	997.235	50
51	6962504	997.3	60
51	6963802	997.5	50
51	6964902	997.7	60
51	6965703	997.9	50
51	6966818	998.1	50
51	6967565	998.237	50
51	6967937	998.3	60
51	6969420	998.5	50
51	6971201	998.837	40
51	6971414	998.9	50
51	6972155	999.1	50
51	6972166	999.1	60
51	6973399	999.3	60
51	6974634	999.5	50
51	6976814	999.837	40
51	6977027	999.9	50
51	6978357	1000.1	50
51	6978368	1000.1	60
51	6979170	1000.3	70
51	6980523	1000.5	50
51	6981699	1000.7	60
51	6982804	1000.9	50
51	6983929	1001.1	50
51	6984637	1001.236	50
51	6985756	1001.437	40
51	6985974	1001.5	50
51	6987273	1001.7	60
51	6988372	1001.9	50
51	6989505	1002.1	50
51	6989516	1002.1	60
51	6990622	1002.3	60
51	6991723	1002.5	50
51	6992821	1002.7	60
51	6993926	1002.9	50
51	6995055	1003.1	50
51	6995066	1003.1	60
51	6995867	1003.3	60
51	6997189	1003.5	50
51	6998381	1003.7	60
51	6999486	1003.9	50
51	7000315	1004.1	50
51	7000326	1004.1	60
51	7001676	1004.3	70
51	7002861	1004.5	50
51	7003957	1004.7	60
51	7005058	1004.9	50
51	7006185	1005.1	50
51	7006196	1005.1	60
51	7007304	1005.3	60
51	7008405	1005.5	50
51	7009206	1005.7	60
51	7010261	1005.9	50
51	7011634	1006.1	50
51	7011645	1006.1	60
51	7012890	1006.3	60
51	7013993	1006.5	50
51	7015097	1006.7	60
51	7016198	1006.9	50
51	7017028	1007.1	50
51	7017684	1007.242	50
51	7017904	1007.3	60
51	7019124	1007.636	50
51	7020854	1007.835	40
51	7021363	1007.9	50
51	7022686	1008.1	50
51	7022697	1008.1	60
51	7024014	1008.3	70
51	7025223	1008.5	70
51	7026317	1008.7	80
51	7027928	1009.1	40
51	7028503	1009.171	40
51	7029422	1009.312	50
51	7029422	1009.312	60
51	7030479	1009.5	50
51	7031510	1009.7	60
51	7032969	1009.9	60
51	7034176	1010.1	60
51	7034187	1010.1	70
51	7035293	1010.3	60
51	7036095	1010.5	60
51	7037104	1010.7	70
51	7038555	1010.9	50
51	7039760	1011.1	50
51	7039772	1011.1	60
51	7040885	1011.3	60
51	7041982	1011.5	60
51	7043082	1011.7	70
51	7044183	1011.9	50
51	7045310	1012.1	50
51	7045321	1012.1	60
51	7046123	1012.3	60
51	7047212	1012.5	50
51	7048520	1012.7	60
51	7049779	1012.9	50
51	7050913	1013.1	50
51	7050924	1013.1	60
51	7051679	1013.3	60
51	7052439	1013.5	50
51	7052891	1013.7	60
51	7053319	1013.9	70
51	7053791	1014.1	70
51	7053803	1014.1	80
51	7054639	1014.9	50
51	7054639	1014.9	60
51	7054639	1014.9	70
51	7054639	1014.9	80
51	7057825	1015.1	80
51	7059045	1015.578	90
51	7059045	1015.578	100
51	7059045	1015.578	110
51	7059812	1015.7	120
51	7060548	1015.9	130
51	7062609	1016.1	130
51	7062620	1016.1	140
51	7064286	1016.3	150
51	7065963	1016.5	160
51	7067462	1016.7	170
51	7070387	1016.9	180
51	7073339	1017.1	180
51	7073350	1017.1	190
51	7075985	1017.3	200
51	7077881	1017.5	100
51	7084665	1017.978	110
51	7084665	1017.978	120
51	7085529	1018.1	120
51	7085540	1018.1	130
51	7087899	1018.3	140
51	7089655	1018.5	40
51	7091683	1018.7	50
51	7094776	1019.1	40
51	7095569	1019.178	40
51	7095569	1019.178	50
51	7096716	1019.3	60
51	7101031	1019.782	40
51	7101031	1019.782	50
51	7102153	1019.9	60
52	6544240	935.508	110
52	6545016	935.782	110
52	6545565	936.06	110
52	6546386	936.3	110
52	6546752	936.335	110
52	6547822	936.614	110
52	6548946	936.888	50
52	6550846	937.164	60
52	6551865	937.3	60
52	6552914	937.44	70
52	6557536	937.718	80
52	6557536	937.718	90
52	6557536	937.718	100
52	6557536	937.718	110
52	6557536	937.718	120
52	6557536	937.718	130
52	6557536	937.718	140
52	6557536	937.718	150
52	6557536	937.718	160
52	6557536	937.718	170
52	6557536	937.718	180
52	6566404	937.993	130
52	6566404	937.993	140
52	6566404	937.993	150
52	6566404	937.993	160
52	6568683	938.1	170
52	6571892	938.3	170
52	6571906	938.3	180
52	6573754	938.5	180
52	6575084	938.7	190
52	6577108	938.9	60
52	6578497	939.1	70
52	6580039	939.3	50
52	6580053	939.3	60
52	6581444	939.5	50
52	6582675	939.7	60
52	6584578	939.9	50
52	6586139	940.1	60
52	6587582	940.3	50
52	6587596	940.3	60
52	6589052	940.5	60
52	6590489	940.7	70
52	6591638	940.9	50
52	6593367	941.1	60
52	6594565	941.3	50
52	6597816	941.8	20
52	6597816	941.8	30
52	6597816	941.8	40
52	6598986	941.9	50
52	6600795	942.1	60
52	6601921	942.3	50
52	6601935	942.3	60
52	6603007	942.5	50
52	6604375	942.7	60
52	6606478	942.9	50
52	6608155	943.1	60
52	6609588	943.3	50
52	6609602	943.3	60
52	6610750	943.5	70
52	6612447	943.7	80
52	6613980	943.9	50
52	6615467	944.1	60
52	6616892	944.3	50
52	6618560	944.574	40
52	6618560	944.574	50
52	6619587	944.7	60
52	6623164	945.174	50
52	6623164	945.174	60
52	6624142	945.3	50
52	6624156	945.3	60
52	6625716	945.5	50
52	6627155	945.7	60
52	6628614	945.9	50
52	6630099	946.1	60
52	6631534	946.3	50
52	6631548	946.3	60
52	6632696	946.5	50
52	6634389	946.7	60
52	6635922	946.9	50
52	6637405	947.1	60
52	6638844	947.3	50
52	6638858	947.3	60
52	6640051	947.5	50
52	6641278	947.7	60
52	6642797	947.9	50
52	6644693	948.1	60
52	6646215	948.3	50
52	6646229	948.3	60
52	6647689	948.5	50
52	6649132	948.7	60
52	6650310	948.9	50
52	6651901	949.1	60
52	6653213	949.3	50
52	6653227	949.3	60
52	6654890	949.5	50
52	6656477	949.7	60
52	6659695	950.179	50
52	6659695	950.179	60
52	6660439	950.3	50
52	6662681	950.694	40
52	6662681	950.694	50
52	6662942	950.7	60
52	6665114	950.9	50
52	6666801	951.1	60
52	6668248	951.3	50
52	6668262	951.3	60
52	6669718	951.5	50
52	6671161	951.7	60
52	6672293	951.9	50
52	6673955	952.1	60
52	6675291	952.3	50
52	6675305	952.3	60
52	6676863	952.5	50
52	6678235	952.7	60
52	6679788	952.9	50
52	6681479	953.1	60
52	6682916	953.3	60
52	6682930	953.3	70
52	6686283	953.782	50
52	6688032	954.058	40
52	6688032	954.058	50
52	6688499	954.1	60
52	6690260	954.3	50
52	6690274	954.3	60
52	6691732	954.5	50
52	6695040	954.977	40
52	6695040	954.977	50
52	6697276	955.3	40
52	6697975	955.375	50
52	6697975	955.375	60
52	6698958	955.5	50
52	6700501	955.7	60
52	6701964	955.9	50
52	6703441	956.1	60
52	6704878	956.3	60
52	6704892	956.3	70
52	6706360	956.5	50
52	6707803	956.7	60
52	6709256	956.9	50
52	6710743	957.1	60
52	6712182	957.3	50
52	6712196	957.3	60
52	6713650	957.5	50
52	6716904	957.976	40
52	6716904	957.976	50
52	6717980	958.1	60
52	6719521	958.3	50
52	6719535	958.3	60
52	6720684	958.5	50
52	6722304	958.7	60
52	6723913	958.9	50
52	6725402	959.1	60
52	6726570	959.3	50
52	6726584	959.3	60
52	6728146	959.5	50
52	6729791	959.7	60
52	6731242	959.9	50
52	6732460	960.1	60
52	6733495	960.3	60
52	6733509	960.3	70
52	6734765	960.5	50
52	6736982	960.7	60
52	6737972	960.9	50
52	6739601	961.1	60
52	6741394	961.3	60
52	6741408	961.3	70
52	6742764	961.5	50
52	6744455	961.7	60
52	6745715	961.9	50
52	6746984	962.1	60
52	6748485	962.3	50
52	6748499	962.3	60
52	6749840	962.5	50
52	6751112	962.7	60
52	6755237	963.176	60
52	6755237	963.176	70
52	6756263	963.3	50
52	6756277	963.3	60
52	6757839	963.5	70
52	6759280	963.7	80
52	6760735	963.9	50
52	6762220	964.1	60
52	6763655	964.3	50
52	6763669	964.3	60
52	6765133	964.5	50
52	6766578	964.7	60
52	6767710	964.9	50
52	6769370	965.1	60
52	6770653	965.3	50
52	6770667	965.3	60
52	6772319	965.5	50
52	6773906	965.7	60
52	6775088	965.9	50
52	6776365	966.1	60
52	6778168	966.3	50
52	6778182	966.3	60
52	6779812	966.5	50
52	6783124	966.977	50
52	6783124	966.977	60
52	6784109	967.1	70
52	6785646	967.3	50
52	6785660	967.3	60
52	6787124	967.5	50
52	6788254	967.7	60
52	6789862	967.9	50
52	6791521	968.1	60
52	6792964	968.3	50
52	6792978	968.3	60
52	6794432	968.5	50
52	6798014	969.097	40
52	6798014	969.097	50
52	6798272	969.1	60
52	6800249	969.3	50
52	6800263	969.3	60
52	6801761	969.5	50
52	6802943	969.7	60
52	6804486	969.9	50
52	6807315	970.3	40
52	6807880	970.379	50
52	6807880	970.379	60
52	6808733	970.5	50
52	6810384	970.7	60
52	6812033	970.9	50
52	6813522	971.1	60
52	6814963	971.3	60
52	6814977	971.3	70
52	6816433	971.5	50
52	6817884	971.7	60
52	6819327	971.9	50
52	6820820	972.1	60
52	6822255	972.3	50
52	6824489	972.677	40
52	6824489	972.677	50
52	6824807	972.7	60
52	6827961	973.3	30
52	6829710	974.3	0
52	6832156	974.547	10
52	6832156	974.547	20
52	6832156	974.547	30
52	6832156	974.547	40
52	6832156	974.547	50
52	6832156	974.547	60
52	6832156	974.547	70
52	6832156	974.547	80
52	6832156	974.547	90
52	6836195	974.7	100
52	6837826	974.9	110
52	6839767	975.3	110
52	6840145	975.346	30
52	6840145	975.346	40
52	6841099	975.5	50
52	6843442	975.945	40
52	6843442	975.945	50
52	6844452	976.1	60
52	6845642	976.3	60
52	6845654	976.3	70
52	6846759	976.5	50
52	6849031	976.947	40
52	6849031	976.947	50
52	6850018	977.1	60
52	6851210	977.3	50
52	6851222	977.3	60
52	6852321	977.5	50
52	6853115	977.7	60
52	6854200	977.9	50
52	6855554	978.1	60
52	6856810	978.3	50
52	6856822	978.3	60
52	6857917	978.5	60
52	6859021	978.7	70
52	6861331	979.146	50
52	6861331	979.146	60
52	6862264	979.3	50
52	6862276	979.3	60
52	6863483	979.5	50
52	6864279	979.7	60
52	6865628	979.9	50
52	6866850	980.1	60
52	6867940	980.3	50
52	6867952	980.3	60
52	6869059	980.5	60
52	6870155	980.7	70
52	6872473	981.147	50
52	6872473	981.147	60
52	6873404	981.3	50
52	6873416	981.3	60
52	6874617	981.5	50
52	6876875	981.946	40
52	6876875	981.946	50
52	6878768	982.3	40
52	6879172	982.353	30
52	6879172	982.353	40
52	6880097	982.5	50
52	6882670	983.029	40
52	6882670	983.029	50
52	6883271	983.1	60
52	6884661	983.3	60
52	6884673	983.3	70
52	6886929	983.745	50
52	6886929	983.745	60
52	6889078	984.146	50
52	6889078	984.146	60
52	6889956	984.3	50
52	6889968	984.3	60
52	6891372	984.5	50
52	6892462	984.7	60
52	6893571	984.9	50
52	6894518	985.1	60
52	6895815	985.3	50
52	6895827	985.3	60
52	6896934	985.5	50
52	6898032	985.7	60
52	6899133	985.9	50
52	6900273	986.1	60
52	6901061	986.3	50
52	6901073	986.3	60
52	6902154	986.5	50
52	6903466	986.7	60
52	6904729	986.9	50
52	6905871	987.1	60
52	6906959	987.3	50
52	6906971	987.3	60
52	6908078	987.5	50
52	6909170	987.7	60
52	6910271	987.9	50
52	6911419	988.1	60
52	6912511	988.3	50
52	6912523	988.3	60
52	6913618	988.5	50
52	6914720	988.7	60
52	6915624	988.9	50
52	6916975	989.1	60
52	6918069	989.3	50
52	6918081	989.3	60
52	6919176	989.5	50
52	6919974	989.7	60
52	6921327	989.9	50
52	6922545	990.1	60
52	6923637	990.3	50
52	6923649	990.3	60
52	6926088	990.833	30
52	6926088	990.833	40
52	6926670	990.9	50
52	6928120	991.1	60
52	6929212	991.3	50
52	6929224	991.3	60
52	6930329	991.5	60
52	6931228	991.7	70
52	6933753	992.149	50
52	6933753	992.149	60
52	6934684	992.3	50
52	6934696	992.3	60
52	6936909	992.745	50
52	6936909	992.745	60
52	6937708	992.9	50
52	6938934	993.1	60
52	6940232	993.3	50
52	6940245	993.3	60
52	6941205	993.5	50
52	6942285	993.7	60
52	6943596	993.9	50
52	6944900	994.1	60
52	6945992	994.3	50
52	6947168	994.546	50
52	6947168	994.546	60
52	6949406	994.949	40
52	6949406	994.949	50
52	6950388	995.1	60
52	6951578	995.3	50
52	6951590	995.3	60
52	6952697	995.5	50
52	6953793	995.7	60
52	6954888	995.9	50
52	6956036	996.1	60
52	6956931	996.3	50
52	6956943	996.3	60
52	6958249	996.5	50
52	6959351	996.7	60
52	6960446	996.9	50
52	6961594	997.1	60
52	6962493	997.3	50
52	6962505	997.3	60
52	6963803	997.5	50
52	6964903	997.7	60
52	6965704	997.9	50
52	6966830	998.1	60
52	6967926	998.3	50
52	6967938	998.3	60
52	6969421	998.5	50
52	6970509	998.7	60
52	6972998	999.231	40
52	6973388	999.3	40
52	6974337	999.477	30
52	6974337	999.477	40
52	6974635	999.5	50
52	6976111	999.7	60
52	6977028	999.9	50
52	6978369	1000.1	60
52	6979159	1000.3	60
52	6979171	1000.3	70
52	6980524	1000.5	50
52	6981700	1000.7	60
52	6982805	1000.9	50
52	6983941	1001.1	60
52	6984840	1001.3	50
52	6984852	1001.3	60
52	6985975	1001.5	50
52	6987274	1001.7	60
52	6988373	1001.9	50
52	6989517	1002.1	60
52	6990611	1002.3	50
52	6990623	1002.3	60
52	6991724	1002.5	50
52	6992822	1002.7	60
52	6993927	1002.9	50
52	6995856	1003.3	40
52	6996234	1003.346	30
52	6996234	1003.346	40
52	6997190	1003.5	50
52	6998382	1003.7	60
52	6999487	1003.9	50
52	7000327	1004.1	60
52	7001665	1004.3	60
52	7001677	1004.3	70
52	7002862	1004.5	50
52	7003958	1004.7	60
52	7005059	1004.9	50
52	7006197	1005.1	60
52	7007293	1005.3	50
52	7007305	1005.3	60
52	7009575	1005.748	50
52	7010857	1005.994	40
52	7010857	1005.994	50
52	7011646	1006.1	60
52	7012879	1006.3	50
52	7012891	1006.3	60
52	7013994	1006.5	50
52	7015098	1006.7	60
52	7017299	1007.149	50
52	7017893	1007.3	40
52	7018437	1007.394	30
52	7020180	1007.792	20
52	7020180	1007.792	30
52	7020180	1007.792	40
52	7023055	1008.145	50
52	7023055	1008.145	60
52	7024003	1008.3	60
52	7024015	1008.3	70
52	7025224	1008.5	70
52	7026318	1008.7	80
52	7027419	1008.9	50
52	7027940	1009.1	60
52	7029209	1009.3	50
52	7030724	1009.548	40
52	7030724	1009.548	50
52	7031511	1009.7	60
52	7032970	1009.9	60
52	7034188	1010.1	70
52	7035282	1010.3	50
52	7036307	1010.547	50
52	7036307	1010.547	60
52	7037105	1010.7	70
52	7038556	1010.9	50
52	7039773	1011.1	60
52	7040874	1011.3	50
52	7040886	1011.3	60
52	7041983	1011.5	60
52	7043083	1011.7	70
52	7044184	1011.9	50
52	7045322	1012.1	60
52	7046112	1012.3	50
52	7046124	1012.3	60
52	7047213	1012.5	50
52	7048521	1012.7	60
52	7049780	1012.9	50
52	7050925	1013.1	60
52	7051668	1013.3	50
52	7051680	1013.3	60
52	7054242	1014.3	40
52	7055677	1015.015	10
52	7055677	1015.015	20
52	7055677	1015.015	30
52	7055677	1015.015	40
52	7055677	1015.015	50
52	7055677	1015.015	60
52	7055677	1015.015	70
52	7055677	1015.015	80
52	7058804	1015.3	80
52	7060791	1015.966	90
52	7060791	1015.966	100
52	7060791	1015.966	110
52	7060791	1015.966	120
52	7060791	1015.966	130
52	7062621	1016.1	140
52	7064275	1016.3	140
52	7064287	1016.3	150
52	7067667	1016.714	160
52	7067667	1016.714	170
52	7070388	1016.9	180
52	7073351	1017.1	190
52	7075974	1017.3	190
52	7078405	1017.517	90
52	7078405	1017.517	100
52	7081337	1017.7	110
52	7083814	1017.9	120
52	7085541	1018.1	130
52	7087888	1018.3	130
52	7087900	1018.3	140
52	7089656	1018.5	40
52	7091684	1018.7	50
52	7096266	1019.275	50
52	7096266	1019.275	60
52	7096705	1019.3	50
52	7096717	1019.3	60
52	7101747	1019.882	40
52	7101747	1019.882	50
52	7102154	1019.9	60
54	7061423	1015.976	90
54	7063583	1016.189	100
54	7065145	1016.401	110
54	7066863	1016.618	120
54	7069035	1016.832	130
54	7069035	1016.832	140
54	7069035	1016.832	150
54	7069035	1016.832	160
54	7069035	1016.832	170
54	7070376	1016.9	170
54	7070389	1016.9	180
54	7073352	1017.1	190
54	7075987	1017.3	200
54	7077883	1017.5	210
54	7081338	1017.7	110
54	7083802	1017.9	110
54	7083815	1017.9	120
54	7085542	1018.1	130
54	7090280	1018.52	30
54	7090280	1018.52	40
54	7091685	1018.7	50
54	7093404	1018.9	50
54	7093417	1018.9	60
54	7094795	1019.1	60
54	7096718	1019.3	70
54	7098764	1019.5	70
54	7100019	1019.7	50
54	7102142	1019.9	50
54	7102155	1019.9	60
55	7063849	1016.216	90
55	7065279	1016.408	100
55	7066602	1016.596	110
55	7068463	1016.782	120
55	7071441	1016.971	130
55	7071441	1016.971	140
55	7071441	1016.971	150
55	7073338	1017.1	150
55	7074229	1017.159	160
55	7074229	1017.159	170
55	7074229	1017.159	180
55	7074229	1017.159	190
55	7075988	1017.3	200
55	7077884	1017.5	210
55	7081339	1017.7	110
55	7083816	1017.9	120
55	7085528	1018.1	120
55	7085543	1018.1	130
55	7087902	1018.3	140
55	7089658	1018.5	150
55	7093187	1018.888	50
55	7093418	1018.9	60
55	7094775	1019.1	60
55	7094796	1019.1	70
55	7096719	1019.3	60
55	7098765	1019.5	70
55	7100020	1019.7	50
55	7102156	1019.9	60
56	7065749	1016.475	90
56	7068031	1016.753	100
56	7072605	1017.028	110
56	7075973	1017.3	110
56	7076433	1017.306	120
56	7079087	1017.584	20
56	7079087	1017.584	30
56	7079087	1017.584	40
56	7079087	1017.584	50
56	7079087	1017.584	60
56	7079087	1017.584	70
56	7079087	1017.584	80
56	7079087	1017.584	90
56	7079087	1017.584	100
56	7086280	1018.133	110
56	7086280	1018.133	120
56	7086280	1018.133	130
56	7087887	1018.3	130
56	7087903	1018.3	140
56	7089659	1018.5	40
56	7091687	1018.7	50
56	7093419	1018.9	60
56	7094797	1019.1	60
56	7096704	1019.3	60
56	7099395	1019.576	30
56	7099395	1019.576	40
56	7100021	1019.7	50
56	7102157	1019.9	60

