version 2
run FastSMR-5-20181114-02:24:19-7008
attr configname FastSMR
attr datetime 20181114-02:24:19
attr experiment FastSMR
attr inifile omnetpp.ini
attr iterationvars "$GCCycleForLatency=6000, $GC=true"
attr iterationvarsf GCCycleForLatency=6000,GC=true-
attr measurement "$GCCycleForLatency=6000, $GC=true"
attr network abstract.FastSMRModel
attr processid 7008
attr repetition 0
attr replication #0
attr resultdir results
attr runnumber 5
attr seedset 5
itervar GC true
itervar GCCycleForLatency 6000
param FastSMRModel.client_num 10
param FastSMRModel.logical_computer "\"client[0]\""
param **.globalParameters.max_distance 20000000m
param **.globalParameters.fix_latency 100ms
param **.globalParameters.latency_gen_mode 0
param **.globalStatistics.cool_down 10s
param **.underlayConfigurator.lcType "\"abstract.LogicComputer\""
param **.underlayConfigurator.lcName "\"logicComputer\""
param **.underlayConfigurator.nodeType "\"hosts.Node\""
param **.underlayConfigurator.nodeName "\"node\""
param **.underlayConfigurator.clientType "\"hosts.Client\""
param **.underlayConfigurator.clientName "\"client\""
param **.client[*].ctrl.initJoinTime 3000ms
param **.client[*].ctrl.loadCycle 500ms
param **.client[*].ctrl.discoveryCycle 1000ms
param **.client[*].ctrl.deviate false
param **.node[*].IPInterface "\"IPAddress\""
param **.node[*].HBcycle 1000ms
param **.node[*].ctrl.roundCycle 200ms
param **.node[*].ctrl.cycleStart 4000ms
param **.node[*].ctrl.GCCycle 6000ms
param **.node[*].ctrl.GC true
param **.rendezvous.ctrl.cycle 1000ms
param **.rendezvous.ctrl.starttime 5000ms
param **.rendezvous.replicaNumPolicyModule "\"replication\""
param **.rendezvous.replication.threshold 3
param **.rendezvous.replication.max_replica 5
param **.clock.err_mean 74ms
param **.clock.err_std 175ms
param **.pktLossRate 0.01
param **.Copt 200000000mps
param **.BW 1.04858e6bps
param **.MTU 12144b
param **.jitter_mu 1
param **.jitter_sigma 0.5
param **.Dmin 50ms
param **.jitter 50ms
param **.churnGeneratorModule "\"churnGenerator\""
param **.churnGenerator.stable_fraction 0.2
param **.churnGenerator.stable_mean 9000000ms
param **.churnGenerator.sessionLenShape 0.38
param **.churnGenerator.sessionLenScale 42.4
param **.churnGenerator.sessionLenMin 10s
param **.churnGenerator.sessionLength 30min
param **.churnGenerator.scan_cycle 100ms
param **.churnGenerator.life_span_min 10s
param **.churnGenerator.life_span_max 200s
param **.coordinator.locXMax 750
param **.coordinator.locYMax 550
param **.coordinator.locXMin 200
param **.coordinator.locYMin 50
param **.coordinator.LCXMax 1050
param **.coordinator.LCYMax 550
param **.coordinator.LCXMin 850
param **.coordinator.LCYMin 50
param **.coordinator.percept_radius 1000

vector 0 FastSMRModel.client[9] IndividualInteractionLatency:vector ETV
attr source latency
attr title "Individual Interaction Latency, vector"
vector 1 FastSMRModel.logicComputer[0].node[0] QdLengthVector:vector ETV
attr source QdLength
attr title "Qd Length, vector"
vector 2 FastSMRModel.logicComputer[0].node[1] QdLengthVector:vector ETV
attr source QdLength
attr title "Qd Length, vector"
vector 3 FastSMRModel.logicComputer[0].node[2] QdLengthVector:vector ETV
attr source QdLength
attr title "Qd Length, vector"
vector 4 FastSMRModel.logicComputer[0].node[3] QdLengthVector:vector ETV
attr source QdLength
attr title "Qd Length, vector"
vector 5 FastSMRModel.logicComputer[0].node[4] QdLengthVector:vector ETV
attr source QdLength
attr title "Qd Length, vector"
vector 6 FastSMRModel.client[2] IndividualInteractionLatency:vector ETV
attr source latency
attr title "Individual Interaction Latency, vector"
vector 7 FastSMRModel.client[4] IndividualInteractionLatency:vector ETV
attr source latency
attr title "Individual Interaction Latency, vector"
vector 8 FastSMRModel.client[7] IndividualInteractionLatency:vector ETV
attr source latency
attr title "Individual Interaction Latency, vector"
vector 9 FastSMRModel.client[5] IndividualInteractionLatency:vector ETV
attr source latency
attr title "Individual Interaction Latency, vector"
vector 10 FastSMRModel.client[6] IndividualInteractionLatency:vector ETV
attr source latency
attr title "Individual Interaction Latency, vector"
vector 11 FastSMRModel.client[0] IndividualInteractionLatency:vector ETV
attr source latency
attr title "Individual Interaction Latency, vector"
vector 12 FastSMRModel.client[1] IndividualInteractionLatency:vector ETV
attr source latency
attr title "Individual Interaction Latency, vector"
vector 13 FastSMRModel.client[3] IndividualInteractionLatency:vector ETV
attr source latency
attr title "Individual Interaction Latency, vector"
vector 14 FastSMRModel.client[8] IndividualInteractionLatency:vector ETV
attr source latency
attr title "Individual Interaction Latency, vector"
4	5593	10.1	30
4	7500	10.3	40
4	9289	10.5	50
4	11068	10.7	60
4	12845	10.9	70
4	14529	11.1	80
4	16273	11.3	90
4	18005	11.5	90
4	18020	11.5	100
4	19560	11.7	110
4	21116	11.9	40
4	22413	12.1	50
4	25241	12.3	60
4	27159	12.5	70
4	29145	12.7	80
4	31054	12.9	90
4	32875	13.1	100
4	34515	13.3	110
4	36144	13.5	120
4	41907	14.119	130
4	41907	14.119	140
4	41907	14.119	150
4	43638	14.3	160
4	45488	14.5	170
4	47281	14.7	180
4	48913	14.9	190
4	50699	15.1	200
4	52682	15.3	210
4	53828	15.5	220
4	56159	15.7	230
4	58089	15.9	240
4	59922	16.1	250
4	61703	16.3	260
4	63490	16.5	270
4	68704	17.119	280
4	68704	17.119	290
4	68704	17.119	300
4	70500	17.3	310
4	72495	17.5	310
4	76118	17.933	10
4	76118	17.933	20
4	76118	17.933	30
4	77596	18.1	40
4	79732	18.3	50
4	81633	18.5	60
4	83066	18.7	70
4	85058	18.9	80
4	86753	19.1	90
4	88177	19.3	100
4	89429	19.5	110
4	91592	19.7	120
4	97300	20.318	130
4	97300	20.318	140
4	97300	20.318	150
4	99579	20.5	160
4	101545	20.7	170
4	103330	20.9	180
4	105169	21.1	190
4	106932	21.3	200
4	112316	21.92	210
4	112316	21.92	220
4	112316	21.92	230
4	114093	22.1	240
4	122523	23.146	250
4	122523	23.146	260
4	122523	23.146	270
4	122523	23.146	280
4	122523	23.146	290
4	124431	23.3	300
4	126151	23.5	300
4	126166	23.5	310
4	127500	23.7	320
4	129887	23.9	40
4	131979	24.1	50
4	134005	24.3	60
4	135992	24.5	70
4	137516	24.7	80
4	138777	24.9	90
4	141105	25.1	100
4	143258	25.3	110
4	145035	25.5	120
4	146619	25.7	130
4	148272	25.9	140
4	150426	26.1	150
4	152247	26.3	160
4	154038	26.5	170
4	155821	26.7	180
4	160882	27.319	190
4	164643	27.737	200
4	164643	27.737	210
4	164643	27.737	220
4	164643	27.737	230
4	166495	27.9	240
4	170745	28.52	250
4	170745	28.52	260
4	170745	28.52	270
4	173501	28.7	280
4	175789	28.9	290
4	177311	29.1	300
4	180890	29.5	300
4	183083	29.719	310
4	183083	29.719	320
4	183083	29.719	330
4	184812	29.9	40
4	186708	30.1	50
4	188196	30.3	60
4	190194	30.5	70
4	192083	30.7	80
4	193681	30.9	90
4	195721	31.1	100
4	200962	31.721	110
4	200962	31.721	120
4	200962	31.721	130
4	202496	31.9	140
4	204520	32.1	150
4	206254	32.3	160
4	207222	32.5	170
4	209747	32.7	180
4	211924	32.9	190
4	213522	33.1	200
4	214990	33.3	210
4	217253	33.5	220
4	219184	33.7	230
4	220710	33.9	240
4	222222	34.1	250
4	224481	34.3	260
4	226402	34.5	270
4	228195	34.7	280
4	233616	35.322	290
4	233616	35.322	300
4	233616	35.322	310
4	235316	35.5	310
4	235331	35.5	320
4	236699	35.7	320
4	237857	35.9	30
4	240434	36.1	40
4	242707	36.3	50
4	244502	36.5	60
4	246287	36.7	70
4	248070	36.9	80
4	249895	37.1	90
4	251381	37.3	100
4	253373	37.5	110
4	260559	38.344	120
4	260559	38.344	130
4	260559	38.344	140
4	260559	38.344	150
4	262263	38.5	160
4	264286	38.7	170
4	265880	38.9	180
4	267914	39.1	190
4	269711	39.3	200
4	271484	39.5	210
4	276901	40.119	220
4	276901	40.119	230
4	276901	40.119	240
4	278613	40.3	250
4	279957	40.5	260
4	281103	40.7	270
4	283632	40.9	280
4	285614	41.1	290
4	287461	41.3	300
4	289292	41.5	300
4	289307	41.5	310
4	291389	41.7	320
4	296269	42.322	30
4	296269	42.322	40
4	296269	42.322	50
4	298185	42.5	60
4	299830	42.7	70
4	302079	42.9	80
4	304076	43.1	90
4	305849	43.3	100
4	311231	43.925	110
4	311231	43.925	120
4	311231	43.925	130
4	312982	44.1	140
4	314657	44.3	150
4	316388	44.5	160
4	317860	44.7	170
4	320113	44.9	180
4	321929	45.1	190
4	323868	45.3	200
4	325666	45.5	210
4	327455	45.7	220
4	329232	45.9	230
4	331077	46.1	240
4	332856	46.3	250
4	334635	46.5	260
4	336428	46.7	270
4	337635	46.9	280
4	338688	47.1	290
4	341339	47.3	300
4	343336	47.5	300
4	343351	47.5	310
4	345423	47.7	320
4	347314	47.9	40
4	348964	48.1	50
4	350946	48.3	60
4	352391	48.5	70
4	354502	48.7	80
4	356327	48.9	90
4	361640	49.519	100
4	361640	49.519	110
4	361640	49.519	120
4	363496	49.7	130
4	365352	49.9	140
4	367185	50.1	150
4	368964	50.3	160
4	370755	50.5	170
4	372542	50.7	180
4	374323	50.9	190
4	376152	51.1	200
4	377678	51.3	210
4	379154	51.5	220
4	381407	51.7	230
4	383328	51.9	240
4	385157	52.1	250
4	386691	52.3	260
4	388168	52.5	270
4	389630	52.7	280
4	391751	52.9	290
4	393746	53.1	300
4	395687	53.3	310
4	397543	53.5	310
4	397558	53.5	320
4	399641	53.7	330
4	401166	53.9	30
4	403204	54.1	40
4	405103	54.3	50
4	406878	54.5	60
4	408671	54.7	70
4	410456	54.9	80
4	412030	55.1	90
4	413498	55.3	100
4	415262	55.5	110
4	416794	55.7	120
4	418889	55.9	130
4	421156	56.1	140
4	422968	56.3	150
4	424950	56.5	160
4	430180	57.12	170
4	430180	57.12	180
4	430180	57.12	190
4	432093	57.3	200
4	433451	57.5	210
4	435646	57.7	220
4	437366	57.9	230
4	439396	58.1	240
4	441185	58.3	250
4	442968	58.5	260
4	444753	58.7	270
4	446233	58.9	280
4	448267	59.1	290
4	449600	59.3	300
4	450740	59.5	300
4	450755	59.5	310
4	453414	59.7	320
4	455639	59.9	50
4	457273	60.1	60
4	459267	60.3	70
4	460482	60.5	80
4	461632	60.7	90
4	464167	60.9	100
4	466299	61.1	110
4	468289	61.3	120
4	470084	61.5	130
4	471857	61.7	140
4	473457	61.9	150
4	478227	62.523	160
4	482197	62.94	170
4	482197	62.94	180
4	482197	62.94	190
4	486521	63.359	200
4	486521	63.359	210
4	486521	63.359	220
4	487936	63.5	230
4	492681	64.123	240
4	496433	64.546	250
4	496433	64.546	260
4	496433	64.546	270
4	496433	64.546	280
4	498429	64.7	290
4	500790	64.9	300
4	502622	65.1	310
4	504401	65.3	320
4	506186	65.5	320
4	506201	65.5	330
4	508040	65.7	340
4	509833	65.9	30
4	511656	66.1	40
4	513443	66.3	50
4	515232	66.5	60
4	517013	66.7	70
4	518804	66.9	80
4	520625	67.1	90
4	521960	67.3	100
4	524075	67.5	110
4	526016	67.7	120
4	527799	67.9	130
4	529636	68.1	140
4	531150	68.3	150
4	532636	68.5	160
4	534887	68.7	170
4	540271	69.319	180
4	540271	69.319	190
4	540271	69.319	200
4	542196	69.5	210
4	544052	69.7	220
4	545837	69.9	230
4	547674	70.1	240
4	552922	70.723	250
4	552922	70.723	260
4	552922	70.723	270
4	554454	70.9	280
4	556563	71.1	290
4	558468	71.3	300
4	560048	71.5	300
4	560063	71.5	310
4	561812	71.7	320
4	563802	71.9	30
4	565498	72.1	40
2	5591	10.1	30
2	7498	10.3	40
2	9287	10.5	50
2	11066	10.7	60
2	12843	10.9	70
2	16042	11.287	80
2	16271	11.3	90
2	18003	11.5	90
2	18018	11.5	100
2	20890	11.883	30
2	22244	12.081	40
2	22411	12.1	50
2	25239	12.3	60
2	27157	12.5	70
2	29143	12.7	80
2	31052	12.9	90
2	32873	13.1	100
2	34513	13.3	110
2	36142	13.5	120
2	37828	13.7	130
2	39703	13.9	140
2	41262	14.1	150
2	43636	14.3	160
2	45486	14.5	170
2	47279	14.7	180
2	50462	15.083	190
2	50697	15.1	200
2	53674	15.487	210
2	53826	15.5	220
2	56157	15.7	230
2	58087	15.9	240
2	59920	16.1	250
2	61701	16.3	260
2	63488	16.5	270
2	65275	16.7	280
2	66433	16.9	290
2	68147	17.1	300
2	70498	17.3	310
2	72493	17.5	310
2	72508	17.5	320
2	73735	17.7	20
2	75434	17.9	30
2	77594	18.1	40
2	79730	18.3	50
2	82874	18.684	60
2	83064	18.7	70
2	85056	18.9	80
2	90670	19.59	90
2	92684	19.773	100
2	94255	19.955	110
2	94255	19.955	120
2	94255	19.955	130
2	96635	20.284	140
2	96789	20.3	150
2	99577	20.5	160
2	101543	20.7	170
2	103328	20.9	180
2	105167	21.1	190
2	106930	21.3	200
2	108723	21.5	210
2	110210	21.7	220
2	111665	21.9	230
2	114091	22.1	240
2	115678	22.3	250
2	117875	22.681	260
2	118095	22.7	270
2	121233	23.084	280
2	121561	23.1	290
2	126149	23.5	290
2	128661	23.78	10
2	128661	23.78	20
2	130975	23.961	30
2	132819	24.148	40
2	132819	24.148	50
2	134003	24.3	60
2	135990	24.5	70
2	138581	24.884	80
2	140810	25.081	90
2	141103	25.1	100
2	143256	25.3	110
2	146391	25.682	120
2	147926	25.881	130
2	148270	25.9	140
2	150424	26.1	150
2	152245	26.3	160
2	154036	26.5	170
2	155819	26.7	180
2	157301	26.9	190
2	159967	27.286	200
2	160256	27.3	210
2	162369	27.5	220
2	163902	27.7	230
2	169622	28.393	240
2	171841	28.579	250
2	171841	28.579	260
2	171841	28.579	270
2	173499	28.7	280
2	175787	28.9	290
2	178894	29.281	300
2	179106	29.3	310
2	180888	29.5	310
2	180903	29.5	320
2	182440	29.7	30
2	184810	29.9	40
2	186706	30.1	50
2	188194	30.3	60
2	190192	30.5	70
2	193473	30.888	80
2	193679	30.9	90
2	195719	31.1	100
2	197498	31.3	110
2	198967	31.5	120
2	203507	31.983	130
2	203507	31.983	140
2	204518	32.1	150
2	207076	32.497	160
2	207220	32.5	170
2	209745	32.7	180
2	211922	32.9	190
2	213520	33.1	200
2	214988	33.3	210
2	217251	33.5	220
2	219182	33.7	230
2	220708	33.9	240
2	222220	34.1	250
2	224479	34.3	260
2	226400	34.5	270
2	228193	34.7	280
2	229970	34.9	290
2	231489	35.1	300
2	232956	35.3	310
2	235314	35.5	310
2	235329	35.5	320
2	236697	35.7	20
2	237855	35.9	30
2	240432	36.1	40
2	242705	36.3	50
2	244500	36.5	60
2	246285	36.7	70
2	248068	36.9	80
2	249893	37.1	90
2	251379	37.3	100
2	253371	37.5	110
2	255266	37.7	120
2	256484	37.9	130
2	257673	38.1	140
2	259620	38.3	150
2	262261	38.5	160
2	265668	38.885	170
2	265878	38.9	180
2	267912	39.1	190
2	269709	39.3	200
2	271482	39.5	210
2	273275	39.7	220
2	274734	39.9	230
2	276263	40.1	240
2	278611	40.3	250
2	279955	40.5	260
2	281101	40.7	270
2	283630	40.9	280
2	285612	41.1	290
2	289038	41.481	300
2	289290	41.5	300
2	289305	41.5	310
2	291387	41.7	20
2	293176	41.9	30
2	294689	42.1	40
2	295849	42.3	50
2	298183	42.5	60
2	299828	42.7	70
2	302077	42.9	80
2	304074	43.1	90
2	305847	43.3	100
2	307638	43.5	110
2	309101	43.7	120
2	310574	43.9	130
2	314453	44.287	140
2	314655	44.3	150
2	316386	44.5	160
2	317858	44.7	170
2	320111	44.9	180
2	321927	45.1	190
2	323866	45.3	200
2	325664	45.5	210
2	327453	45.7	220
2	329230	45.9	230
2	331075	46.1	240
2	332854	46.3	250
2	334633	46.5	260
2	336426	46.7	270
2	337633	46.9	280
2	338686	47.1	290
2	341337	47.3	300
2	343334	47.5	300
2	343349	47.5	310
2	345421	47.7	30
2	348758	48.088	40
2	348962	48.1	50
2	352069	48.482	60
2	352389	48.5	70
2	354500	48.7	80
2	357757	49.086	90
2	357951	49.1	100
2	359324	49.3	110
2	361000	49.5	120
2	363494	49.7	130
2	365350	49.9	140
2	367183	50.1	150
2	368962	50.3	160
2	370753	50.5	170
2	372540	50.7	180
2	374321	50.9	190
2	376150	51.1	200
2	377676	51.3	210
2	379152	51.5	220
2	381405	51.7	230
2	383326	51.9	240
2	385155	52.1	250
2	386689	52.3	260
2	388166	52.5	270
2	389628	52.7	280
2	393410	53.081	290
2	393744	53.1	300
2	395685	53.3	310
2	397541	53.5	310
2	397556	53.5	320
2	399639	53.7	20
2	401164	53.9	30
2	403202	54.1	40
2	405101	54.3	50
2	406876	54.5	60
2	408669	54.7	70
2	410454	54.9	80
2	412028	55.1	90
2	413496	55.3	100
2	415260	55.5	110
2	419802	55.944	120
2	419802	55.944	130
2	422750	56.286	140
2	422966	56.3	150
2	424948	56.5	160
2	426729	56.7	170
2	429328	57.083	180
2	429532	57.1	190
2	433261	57.481	200
2	433449	57.5	210
2	437150	57.885	220
2	437364	57.9	230
2	439394	58.1	240
2	441183	58.3	250
2	442966	58.5	260
2	444751	58.7	270
2	446231	58.9	280
2	450738	59.5	280
2	451956	59.582	290
2	451956	59.582	300
2	451956	59.582	310
2	453412	59.7	40
2	457063	60.083	50
2	457271	60.1	60
2	459265	60.3	70
2	460480	60.5	80
2	461630	60.7	90
2	466097	61.087	100
2	466297	61.1	110
2	468287	61.3	120
2	470082	61.5	130
2	473247	61.885	140
2	473455	61.9	150
2	475485	62.1	160
2	480002	62.782	170
2	480002	62.782	180
2	480002	62.782	190
2	481282	62.9	200
2	484013	63.1	210
2	485674	63.3	220
2	487934	63.5	230
2	489898	63.7	240
2	490914	63.9	250
2	492284	64.1	260
2	493487	64.3	270
2	495536	64.5	280
2	498427	64.7	290
2	500788	64.9	300
2	502620	65.1	310
2	504399	65.3	320
2	506184	65.5	320
2	506199	65.5	330
2	508038	65.7	20
2	509831	65.9	30
2	511654	66.1	40
2	513441	66.3	50
2	515230	66.5	60
2	517011	66.7	70
2	518802	66.9	80
2	520623	67.1	90
2	521958	67.3	100
2	524073	67.5	110
2	526014	67.7	120
2	527797	67.9	130
2	529634	68.1	140
2	531148	68.3	150
2	532634	68.5	160
2	534885	68.7	170
2	536501	68.9	180
2	539425	69.282	190
2	539617	69.3	200
2	542194	69.5	210
2	544050	69.7	220
2	545835	69.9	230
2	547672	70.1	240
2	549457	70.3	250
2	550918	70.5	260
2	552397	70.7	270
2	554452	70.9	280
2	556561	71.1	290
2	559854	71.486	300
2	560046	71.5	300
2	560061	71.5	310
2	561810	71.7	20
2	563800	71.9	30
2	565496	72.1	40
2	566964	72.3	50
2	568900	72.5	60
2	570500	72.7	70
2	571932	72.9	80
2	573414	73.1	90
2	574862	73.3	100
2	576301	73.5	110
2	577428	73.7	120
2	579079	73.9	130
2	580370	74.1	140
2	582029	74.3	150
2	583577	74.5	160
2	585025	74.7	170
2	586156	74.9	180
2	587855	75.1	190
2	589405	75.3	200
2	590589	75.5	210
2	592224	75.7	220
2	593752	75.9	230
2	596265	76.284	240
2	596487	76.3	250
2	598140	76.5	260
2	599578	76.7	270
2	601026	76.9	280
2	602202	77.1	290
2	603323	77.3	300
2	605082	77.5	300
2	605096	77.5	310
2	606928	77.7	20
2	608368	77.9	30
2	610907	78.283	40
2	611097	78.3	50
2	613781	78.683	60
2	615260	78.887	70
2	615442	78.9	80
2	617131	79.1	90
2	618314	79.3	100
2	619715	79.5	110
2	620848	79.7	120
2	622242	79.9	130
2	623856	80.1	140
2	625281	80.3	150
2	627082	80.5	160
2	628815	80.7	170
2	630311	80.9	180
2	631799	81.1	190
2	633231	81.3	200
2	634364	81.5	210
2	636021	81.7	220
2	637571	81.9	230
2	639055	82.1	240
2	640495	82.3	250
2	641790	82.5	260
2	644432	82.882	270
2	646615	83.194	280
2	646615	83.194	290
2	647493	83.3	300
2	649066	83.5	300
2	650829	83.794	10
2	650829	83.794	20
2	651757	83.9	30
2	653703	84.1	40
2	655149	84.3	50
2	656591	84.5	60
2	658019	84.7	70
2	659473	84.9	80
2	660955	85.1	90
2	662143	85.3	100
2	663786	85.5	110
2	665316	85.7	120
2	666746	85.9	130
2	668240	86.1	140
2	669668	86.3	150
2	671118	86.5	160
2	672556	86.7	170
2	673734	86.9	180
2	675359	87.1	190
2	676949	87.3	200
2	678389	87.5	210
2	679678	87.7	220
2	682396	88.089	230
2	682572	88.1	240
2	684225	88.3	250
2	685667	88.5	260
2	687099	88.7	270
2	689642	89.082	280
2	689836	89.1	290
2	691475	89.3	300
2	692907	89.5	300
2	692921	89.5	310
2	694409	89.7	20
2	695841	89.9	30
2	697331	90.1	40
2	698777	90.3	50
2	700201	90.5	60
2	701649	90.7	70
2	703095	90.9	80
2	705497	91.285	90
2	705667	91.3	100
2	708261	91.682	110
2	708571	91.7	120
2	710107	91.9	130
2	711562	92.1	140
2	712897	92.3	150
2	714717	92.5	160
2	716267	92.7	170
2	717404	92.9	180
2	719101	93.1	190
2	720653	93.3	200
2	722093	93.5	210
2	723527	93.7	220
2	724969	93.9	230
2	726453	94.1	240
2	727909	94.3	250
2	729327	94.5	260
2	730470	94.7	270
2	732117	94.9	280
2	733719	95.1	290
2	735151	95.3	300
2	736060	95.5	300
2	736074	95.5	310
2	737799	95.7	30
2	739559	95.9	40
2	741053	96.1	50
2	742489	96.3	60
2	743673	96.5	70
2	745314	96.7	80
2	746838	96.9	90
2	747757	97.1	100
2	749400	97.3	110
2	750669	97.5	120
2	752352	97.7	130
2	754003	97.9	140
2	755612	98.1	150
2	757078	98.3	160
2	758369	98.5	170
2	759963	98.7	180
2	761414	98.9	190
2	762644	99.1	200
2	764049	99.3	210
2	765692	99.5	220
2	767290	99.7	230
2	768466	99.9	240
2	769916	100.1	250
2	771256	100.3	260
2	773074	100.5	270
2	774614	100.7	280
2	777644	101.221	290
2	777644	101.221	300
2	778456	101.3	310
2	780488	101.5	310
2	780502	101.5	320
2	781994	101.7	20
2	783426	101.9	30
2	784914	102.1	40
2	786356	102.3	50
2	787788	102.5	60
2	789079	102.7	70
2	790684	102.9	80
2	793219	103.283	90
2	793409	103.3	100
2	794757	103.5	110
2	796398	103.7	120
2	797809	103.9	130
2	800505	104.282	140
2	800699	104.3	150
2	802354	104.5	160
2	803784	104.7	170
2	806327	105.085	180
2	806519	105.1	190
2	808160	105.3	200
2	809334	105.5	210
2	810981	105.7	220
2	812513	105.9	230
2	813993	106.1	240
2	815441	106.3	250
2	816873	106.5	260
2	818323	106.7	270
2	819761	106.9	280
2	821251	107.1	290
2	822693	107.3	300
2	824115	107.5	300
2	824129	107.5	310
2	825355	107.7	20
2	826970	107.9	30
2	828114	108.1	40
2	829880	108.3	50
2	831472	108.5	60
2	832658	108.7	70
2	834305	108.9	80
2	835871	109.1	90
2	837319	109.3	100
2	838758	109.5	110
2	840197	109.7	120
2	842742	110.084	130
2	842928	110.1	140
2	844569	110.3	150
2	846009	110.5	160
2	847189	110.7	170
2	848646	110.9	180
2	851127	111.293	190
2	851281	111.3	200
2	853255	111.5	210
2	854503	111.7	220
2	856159	111.9	230
2	857753	112.1	240
2	859060	112.3	250
2	860643	112.5	260
2	862097	112.7	270
2	863223	112.9	280
2	864927	113.1	290
2	866481	113.3	300
2	867909	113.5	300
2	867923	113.5	310
2	869403	113.7	20
2	870702	113.9	30
2	872333	114.1	40
2	873783	114.3	50
2	875221	114.5	60
2	876661	114.7	70
2	878101	114.9	80
2	879587	115.1	90
2	881021	115.3	100
2	882459	115.5	110
2	883893	115.7	120
2	885189	115.9	130
2	886823	116.1	140
2	888271	116.3	150
2	889461	116.5	160
2	891072	116.7	170
2	893749	117.085	180
2	893931	117.1	190
2	895562	117.3	200
2	897014	117.5	210
2	898301	117.7	220
2	899581	117.9	230
2	901038	118.1	240
2	902678	118.3	250
2	904310	118.5	260
2	905752	118.7	270
2	907041	118.9	280
2	908651	119.1	290
2	910118	119.3	300
2	911566	119.5	300
2	911580	119.5	310
2	913054	119.7	20
2	914490	119.9	30
2	915978	120.1	40
2	917113	120.3	50
2	918762	120.5	60
2	922067	120.944	70
2	922067	120.944	80
2	923058	121.1	90
2	924697	121.3	100
2	926140	121.5	110
2	927581	121.7	120
2	928766	121.9	130
2	930269	122.1	140
2	931972	122.3	150
2	933435	122.5	160
2	934568	122.7	170
2	937434	123.083	180
2	937624	123.1	190
2	939269	123.3	200
2	940707	123.5	210
2	942155	123.7	220
2	943331	123.9	230
2	944672	124.1	240
2	946195	124.3	250
2	947476	124.5	260
2	949275	124.7	270
2	950972	124.9	280
2	952466	125.1	290
2	953894	125.3	300
2	955023	125.5	300
2	955037	125.5	310
2	956728	125.7	30
2	958022	125.9	40
2	960390	126.284	50
2	960574	126.3	60
2	962738	126.5	70
2	964186	126.7	80
2	965610	126.9	90
2	967110	127.1	100
2	968548	127.3	110
2	969982	127.5	120
2	972477	127.882	130
2	972665	127.9	140
2	975407	128.282	150
2	975609	128.3	160
2	977248	128.5	170
2	978682	128.7	180
2	980136	128.9	190
2	981610	129.1	200
1	5590	10.1	30
1	7497	10.3	40
1	9286	10.5	50
1	11065	10.7	60
1	12842	10.9	70
1	14526	11.1	80
1	16270	11.3	90
1	18002	11.5	90
1	18017	11.5	100
1	19557	11.7	30
1	22997	12.134	40
1	22997	12.134	50
1	27817	12.529	60
1	27817	12.529	70
1	29142	12.7	80
1	31051	12.9	90
1	32872	13.1	100
1	37048	13.615	110
1	37048	13.615	120
1	37827	13.7	130
1	39702	13.9	140
1	41261	14.1	150
1	43635	14.3	160
1	45485	14.5	170
1	47278	14.7	180
1	48910	14.9	190
1	50696	15.1	200
1	54721	15.543	210
1	54721	15.543	220
1	56156	15.7	230
1	58086	15.9	240
1	59919	16.1	250
1	61700	16.3	260
1	63487	16.5	270
1	67007	16.934	280
1	67007	16.934	290
1	68146	17.1	300
1	70497	17.3	310
1	72492	17.5	310
1	74298	17.73	10
1	74298	17.73	20
1	78387	18.13	30
1	78387	18.13	40
1	79729	18.3	50
1	81630	18.5	60
1	83063	18.7	70
1	87180	19.131	80
1	87180	19.131	90
1	88174	19.3	100
1	89426	19.5	110
1	91589	19.7	120
1	93545	19.9	130
1	97773	20.332	140
1	97773	20.332	150
1	99576	20.5	160
1	101542	20.7	170
1	103327	20.9	180
1	105166	21.1	190
1	106929	21.3	200
1	108722	21.5	210
1	110209	21.7	220
1	111664	21.9	230
1	114090	22.1	240
1	115677	22.3	250
1	116832	22.5	260
1	118094	22.7	270
1	119515	22.9	280
1	125084	23.336	290
1	125084	23.336	300
1	126148	23.5	300
1	126163	23.5	310
1	127497	23.7	30
1	129884	23.9	40
1	131976	24.1	50
1	134002	24.3	60
1	135989	24.5	70
1	137513	24.7	80
1	138774	24.9	90
1	141102	25.1	100
1	143255	25.3	110
1	145032	25.5	120
1	146616	25.7	130
1	148269	25.9	140
1	150423	26.1	150
1	152244	26.3	160
1	154035	26.5	170
1	157842	26.93	180
1	157842	26.93	190
1	159016	27.1	200
1	160255	27.3	210
1	162368	27.5	220
1	163901	27.7	230
1	166492	27.9	240
1	167935	28.1	250
1	171292	28.537	260
1	171292	28.537	270
1	173498	28.7	280
1	177853	29.13	290
1	177853	29.13	300
1	179105	29.3	310
1	180887	29.5	310
1	180902	29.5	320
1	182439	29.7	30
1	184809	29.9	40
1	188901	30.336	50
1	188901	30.336	60
1	190191	30.5	70
1	192080	30.7	80
1	193678	30.9	90
1	195718	31.1	100
1	197497	31.3	110
1	198966	31.5	120
1	200445	31.7	130
1	202493	31.9	140
1	204517	32.1	150
1	207992	32.536	160
1	207992	32.536	170
1	209744	32.7	180
1	211921	32.9	190
1	213519	33.1	200
1	214987	33.3	210
1	217250	33.5	220
1	219181	33.7	230
1	220707	33.9	240
1	222219	34.1	250
1	224478	34.3	260
1	226399	34.5	270
1	228192	34.7	280
1	229969	34.9	290
1	231488	35.1	300
1	232955	35.3	310
1	235313	35.5	310
1	239248	36.006	10
1	239248	36.006	20
1	239248	36.006	30
1	240431	36.1	40
1	242704	36.3	50
1	244499	36.5	60
1	246284	36.7	70
1	248067	36.9	80
1	252041	37.33	90
1	252041	37.33	100
1	253370	37.5	110
1	255265	37.7	120
1	256483	37.9	130
1	257672	38.1	140
1	259619	38.3	150
1	262260	38.5	160
1	264283	38.7	170
1	265877	38.9	180
1	267911	39.1	190
1	269708	39.3	200
1	271481	39.5	210
1	273274	39.7	220
1	274733	39.9	230
1	276262	40.1	240
1	278610	40.3	250
1	279954	40.5	260
1	281100	40.7	270
1	286166	41.135	280
1	286166	41.135	290
1	287458	41.3	300
1	289289	41.5	300
1	289304	41.5	310
1	291386	41.7	20
1	293175	41.9	30
1	296637	42.329	40
1	296637	42.329	50
1	298182	42.5	60
1	299827	42.7	70
1	302076	42.9	80
1	304073	43.1	90
1	305846	43.3	100
1	307637	43.5	110
1	309100	43.7	120
1	310573	43.9	130
1	312979	44.1	140
1	314654	44.3	150
1	316385	44.5	160
1	317857	44.7	170
1	320110	44.9	180
1	321926	45.1	190
1	323865	45.3	200
1	325663	45.5	210
1	327452	45.7	220
1	329229	45.9	230
1	331074	46.1	240
1	332853	46.3	250
1	334632	46.5	260
1	340076	47.206	270
1	340076	47.206	280
1	340076	47.206	290
1	343333	47.5	290
1	344045	47.529	300
1	344045	47.529	310
1	345420	47.7	30
1	347311	47.9	40
1	348961	48.1	50
1	350943	48.3	60
1	352388	48.5	70
1	354499	48.7	80
1	356324	48.9	90
1	360000	49.343	100
1	360000	49.343	110
1	360999	49.5	120
1	363493	49.7	130
1	365349	49.9	140
1	367182	50.1	150
1	368961	50.3	160
1	370752	50.5	170
1	372539	50.7	180
1	374320	50.9	190
1	376149	51.1	200
1	377675	51.3	210
1	379151	51.5	220
1	381404	51.7	230
1	383325	51.9	240
1	385154	52.1	250
1	386688	52.3	260
1	388165	52.5	270
1	392300	52.931	280
1	392300	52.931	290
1	396249	53.334	300
1	396249	53.334	310
1	397540	53.5	310
1	397555	53.5	320
1	401838	53.932	20
1	401838	53.932	30
1	403201	54.1	40
1	405100	54.3	50
1	406875	54.5	60
1	408668	54.7	70
1	410453	54.9	80
1	412027	55.1	90
1	413495	55.3	100
1	415259	55.5	110
1	416791	55.7	120
1	418886	55.9	130
1	421153	56.1	140
1	422965	56.3	150
1	424947	56.5	160
1	426728	56.7	170
1	428195	56.9	180
1	429531	57.1	190
1	434203	57.533	200
1	434203	57.533	210
1	435643	57.7	220
1	437363	57.9	230
1	439393	58.1	240
1	441182	58.3	250
1	442965	58.5	260
1	446890	58.93	270
1	446890	58.93	280
1	448264	59.1	290
1	449597	59.3	300
1	450737	59.5	300
1	450752	59.5	310
1	453411	59.7	40
1	455636	59.9	50
1	457270	60.1	60
1	462979	60.804	70
1	462979	60.804	80
1	462979	60.804	90
1	464164	60.9	100
1	466296	61.1	110
1	468286	61.3	120
1	470081	61.5	130
1	471854	61.7	140
1	473454	61.9	150
1	475484	62.1	160
1	476949	62.3	170
1	477854	62.5	180
1	478989	62.7	190
1	481281	62.9	200
1	484012	63.1	210
1	485673	63.3	220
1	487933	63.5	230
1	491361	63.931	240
1	494650	64.406	250
1	494650	64.406	260
1	497684	64.637	270
1	497684	64.637	280
1	498426	64.7	290
1	500787	64.9	300
1	502619	65.1	310
1	504398	65.3	320
1	506183	65.5	320
1	506198	65.5	330
1	508037	65.7	320
1	509830	65.9	30
1	511653	66.1	40
1	513440	66.3	50
1	515229	66.5	60
1	517010	66.7	70
1	518801	66.9	80
1	522623	67.329	90
1	522623	67.329	100
1	524072	67.5	110
1	526013	67.7	120
1	527796	67.9	130
1	529633	68.1	140
1	531147	68.3	150
1	532633	68.5	160
1	537067	68.933	170
1	537067	68.933	180
1	538218	69.1	190
1	539616	69.3	200
1	542193	69.5	210
1	544049	69.7	220
1	545834	69.9	230
1	547671	70.1	240
1	549456	70.3	250
1	550917	70.5	260
1	555220	70.935	270
1	555220	70.935	280
1	556560	71.1	290
1	558465	71.3	300
1	560045	71.5	300
1	562497	71.732	10
1	562497	71.732	20
1	563799	71.9	30
1	565495	72.1	40
1	566963	72.3	50
1	568899	72.5	60
1	570499	72.7	70
1	571931	72.9	80
1	573413	73.1	90
1	574861	73.3	100
1	577969	73.73	110
1	577969	73.73	120
1	580912	74.131	130
1	580912	74.131	140
1	582028	74.3	150
1	583576	74.5	160
1	586692	74.931	170
1	586692	74.931	180
1	587854	75.1	190
1	589404	75.3	200
1	590588	75.5	210
1	592223	75.7	220
1	593751	75.9	230
1	595090	76.1	240
1	596486	76.3	250
1	598139	76.5	260
1	599577	76.7	270
1	602605	77.13	280
1	604334	77.414	290
1	604334	77.414	300
1	605081	77.5	300
1	605095	77.5	310
1	606927	77.7	20
1	608367	77.9	30
1	609851	78.1	40
1	611096	78.3	50
1	612745	78.5	60
1	613981	78.7	70
1	615441	78.9	80
1	617130	79.1	90
1	618313	79.3	100
1	622005	79.88	110
1	624321	80.113	120
1	625813	80.343	130
1	625813	80.343	140
1	625813	80.343	150
1	627081	80.5	160
1	628814	80.7	170
1	630310	80.9	180
1	631798	81.1	190
1	634966	81.537	200
1	634966	81.537	210
1	636020	81.7	220
1	637570	81.9	230
1	639054	82.1	240
1	640494	82.3	250
1	641789	82.5	260
1	643384	82.7	270
1	644633	82.9	280
1	645741	83.1	290
1	647492	83.3	300
1	649065	83.5	300
1	649079	83.5	310
1	650157	83.7	20
1	651756	83.9	30
1	653702	84.1	40
1	655148	84.3	50
1	656590	84.5	60
1	658018	84.7	70
1	659472	84.9	80
1	660954	85.1	90
1	662142	85.3	100
1	663785	85.5	110
1	665315	85.7	120
1	666745	85.9	130
1	668239	86.1	140
1	669667	86.3	150
1	671117	86.5	160
1	672555	86.7	170
1	673733	86.9	180
1	675358	87.1	190
1	676948	87.3	200
1	678388	87.5	210
1	679677	87.7	220
1	681253	87.9	230
1	682571	88.1	240
1	684224	88.3	250
1	685666	88.5	260
1	687098	88.7	270
1	688536	88.9	280
1	689835	89.1	290
1	691474	89.3	300
1	692906	89.5	300
1	692920	89.5	310
1	694408	89.7	20
1	695840	89.9	30
1	697330	90.1	40
1	698776	90.3	50
1	700200	90.5	60
1	701648	90.7	70
1	703094	90.9	80
1	704564	91.1	90
1	705666	91.3	100
1	707452	91.5	110
1	708570	91.7	120
1	710106	91.9	130
1	713494	92.333	140
1	713494	92.333	150
1	714716	92.5	160
1	717929	92.929	170
1	717929	92.929	180
1	719100	93.1	190
1	720652	93.3	200
1	722092	93.5	210
1	723526	93.7	220
1	724968	93.9	230
1	726452	94.1	240
1	727908	94.3	250
1	731053	94.736	260
1	731053	94.736	270
1	732116	94.9	280
1	733718	95.1	290
1	735150	95.3	300
1	736059	95.5	300
1	736073	95.5	310
1	737798	95.7	30
1	739558	95.9	40
1	741052	96.1	50
1	742488	96.3	60
1	743672	96.5	70
1	745313	96.7	80
1	748696	97.219	90
1	748696	97.219	100
1	751608	97.615	110
1	751608	97.615	120
1	752351	97.7	130
1	754002	97.9	140
1	755611	98.1	150
1	757077	98.3	160
1	758368	98.5	170
1	759962	98.7	180
1	761413	98.9	190
1	762643	99.1	200
1	764048	99.3	210
1	765691	99.5	220
1	767289	99.7	230
1	768465	99.9	240
1	771822	100.331	250
1	771822	100.331	260
1	773073	100.5	270
1	774613	100.7	280
1	775789	100.9	290
1	776666	101.1	300
1	778455	101.3	310
1	780487	101.5	310
1	780501	101.5	320
1	781993	101.7	20
1	783425	101.9	30
1	784913	102.1	40
1	786355	102.3	50
1	787787	102.5	60
1	789078	102.7	70
1	790683	102.9	80
1	792165	103.1	90
1	795306	103.532	100
1	795306	103.532	110
1	796397	103.7	120
1	797808	103.9	130
1	799445	104.1	140
1	800698	104.3	150
1	802353	104.5	160
1	803783	104.7	170
1	805227	104.9	180
1	806518	105.1	190
1	808159	105.3	200
1	809333	105.5	210
1	810980	105.7	220
1	812512	105.9	230
1	813992	106.1	240
1	815440	106.3	250
1	816872	106.5	260
1	818322	106.7	270
1	819760	106.9	280
1	821250	107.1	290
1	822692	107.3	300
1	824114	107.5	300
1	824128	107.5	310
1	825354	107.7	20
1	828676	108.131	30
1	828676	108.131	40
1	829879	108.3	50
1	831471	108.5	60
1	832657	108.7	70
1	834304	108.9	80
1	835870	109.1	90
1	837318	109.3	100
1	838757	109.5	110
1	840196	109.7	120
1	841624	109.9	130
1	842927	110.1	140
1	844568	110.3	150
1	846008	110.5	160
1	847188	110.7	170
1	848645	110.9	180
1	852051	111.34	190
1	852051	111.34	200
1	855050	111.731	210
1	855050	111.731	220
1	856158	111.9	230
1	857752	112.1	240
1	859059	112.3	250
1	860642	112.5	260
1	863835	112.938	270
1	863835	112.938	280
1	864926	113.1	290
1	866480	113.3	300
1	867908	113.5	300
1	867922	113.5	310
1	869402	113.7	20
1	870701	113.9	30
1	872332	114.1	40
1	873782	114.3	50
1	875220	114.5	60
1	876660	114.7	70
1	878100	114.9	80
1	879586	115.1	90
1	881020	115.3	100
1	882458	115.5	110
1	883892	115.7	120
1	885188	115.9	130
1	886822	116.1	140
1	888270	116.3	150
1	889460	116.5	160
1	891071	116.7	170
1	892627	116.9	180
1	893930	117.1	190
1	895561	117.3	200
1	897013	117.5	210
1	900126	117.929	220
1	901790	118.163	230
1	901790	118.163	240
1	902677	118.3	250
1	904309	118.5	260
1	905751	118.7	270
1	907040	118.9	280
1	908650	119.1	290
1	910117	119.3	300
1	911565	119.5	300
1	911579	119.5	310
1	913053	119.7	20
1	914489	119.9	30
1	917651	120.33	40
1	917651	120.33	50
1	918761	120.5	60
1	920315	120.7	70
1	921442	120.9	80
1	923057	121.1	90
1	924696	121.3	100
1	926139	121.5	110
1	927580	121.7	120
1	928765	121.9	130
1	930268	122.1	140
1	931971	122.3	150
1	935106	122.729	160
1	935106	122.729	170
1	936206	122.9	180
1	937623	123.1	190
1	939268	123.3	200
1	940706	123.5	210
1	942154	123.7	220
1	945256	124.131	230
1	946771	124.362	240
1	948409	124.592	250
1	948409	124.592	260
1	949274	124.7	270
1	950971	124.9	280
1	952465	125.1	290
1	955022	125.5	290
1	955598	125.531	300
1	955598	125.531	310
1	956727	125.7	30
1	959970	126.243	40
1	959970	126.243	50
1	960573	126.3	60
1	962737	126.5	70
1	964185	126.7	80
1	965609	126.9	90
1	967109	127.1	100
1	968547	127.3	110
1	969981	127.5	120
1	971425	127.7	130
1	972664	127.9	140
1	974355	128.1	150
1	975608	128.3	160
1	977247	128.5	170
1	978681	128.7	180
1	980135	128.9	190
1	981609	129.1	200
1	983048	129.3	210
1	984133	129.5	220
1	985226	129.7	230
1	986321	129.9	240
1	987467	130.1	250
1	988566	130.3	260
1	989653	130.5	270
1	990486	130.7	280
1	991777	130.9	290
1	993012	131.1	300
1	994107	131.3	310
1	995188	131.5	310
1	995201	131.5	320
1	996328	131.7	20
1	997415	131.9	30
1	998554	132.1	40
1	999655	132.3	50
1	1000748	132.5	60
1	1001843	132.7	70
1	1002934	132.9	80
1	1004077	133.1	90
1	1005178	133.3	100
1	1006271	133.5	110
1	1007372	133.7	120
1	1008459	133.9	130
1	1009606	134.1	140
1	1010435	134.3	150
1	1011724	134.5	160
1	1012913	134.7	170
1	1013740	134.9	180
1	1014869	135.1	190
1	1016262	135.3	200
1	1017355	135.5	210
1	1018460	135.7	220
1	1019555	135.9	230
1	1020684	136.1	240
1	1022995	136.531	250
1	1022995	136.531	260
1	1023877	136.7	270
1	1025090	136.9	280
1	1027624	137.417	290
1	1027624	137.417	300
1	1028150	137.5	300
1	1028163	137.5	310
1	1029561	137.7	20
1	1030656	137.9	30
1	1031807	138.1	40
1	1034110	138.613	50
1	1034110	138.613	60
1	1034749	138.7	70
1	1036204	138.9	80
1	1037331	139.1	90
1	1038180	139.3	100
1	1039443	139.5	110
1	1040382	139.7	120
1	1041445	139.9	130
1	1042772	140.1	140
1	1043763	140.3	150
1	1045050	140.5	160
1	1046233	140.7	170
1	1047068	140.9	180
1	1048407	141.1	190
1	1049338	141.3	200
1	1050641	141.5	210
1	1051818	141.7	220
1	1052905	141.9	230
1	1054054	142.1	240
1	1055151	142.3	250
1	1055971	142.5	260
1	1057157	142.7	270
1	1058454	142.9	280
1	1059583	143.1	290
1	1060682	143.3	300
1	1061773	143.5	300
1	1061786	143.5	310
1	1064116	143.932	20
1	1064116	143.932	30
1	1065037	144.1	40
1	1066246	144.3	50
1	1067339	144.5	60
1	1068434	144.7	70
1	1069267	144.9	80
1	1070572	145.1	90
1	1072872	145.531	100
1	1072872	145.531	110
1	1073732	145.7	120
1	1074939	145.9	130
1	1076227	146.1	140
1	1077356	146.3	150
1	1078447	146.5	160
1	1079552	146.7	170
1	1080494	146.9	180
1	1081784	147.1	190
1	1082893	147.3	200
1	1083984	147.5	210
1	1085073	147.7	220
1	1086168	147.9	230
1	1087313	148.1	240
1	1088414	148.3	250
1	1089501	148.5	260
1	1090596	148.7	270
1	1091691	148.9	280
1	1092838	149.1	290
1	1093927	149.3	300
1	1094859	149.5	300
1	1094872	149.5	310
1	1096153	149.7	20
1	1097254	149.9	30
1	1098376	150.1	40
1	1099491	150.3	50
1	1100435	150.5	60
1	1102830	150.93	70
1	1102830	150.93	80
1	1103849	151.1	90
1	1105060	151.3	100
1	1106014	151.5	110
1	1107267	151.7	120
1	1108206	151.9	130
1	1109234	152.1	140
1	1110529	152.3	150
1	1112940	152.733	160
1	1112940	152.733	170
1	1113810	152.9	180
1	1114809	153.1	190
1	1116090	153.3	200
1	1117130	153.5	210
1	1118383	153.7	220
1	1119489	153.9	230
1	1120616	154.1	240
1	1121715	154.3	250
1	1122810	154.5	260
1	1123903	154.7	270
1	1124849	154.9	280
1	1126117	155.1	290
1	1126964	155.3	300
1	1128265	155.5	300
1	1128278	155.5	310
1	1129485	155.7	20
1	1130582	155.9	30
1	1131721	156.1	40
1	1134040	156.616	50
1	1134040	156.616	60
1	1134677	156.7	70
1	1136136	156.9	80
1	1138488	157.424	90
1	1138488	157.424	100
1	1139045	157.5	110
1	1140575	157.7	120
1	1141681	157.9	130
1	1144033	158.331	140
1	1144033	158.331	150
1	1144914	158.5	160
1	1146127	158.7	170
1	1147218	158.9	180
1	1148365	159.1	190
1	1149450	159.3	200
1	1150563	159.5	210
1	1151644	159.7	220
1	1152743	159.9	230
1	1154828	160.33	240
1	1154828	160.33	250
1	1155431	160.5	260
1	1156922	160.7	270
1	1158295	160.9	280
1	1159440	161.1	290
1	1160539	161.3	300
1	1161628	161.5	300
1	1161641	161.5	310
1	1162764	161.7	20
1	1163847	161.9	30
1	1164995	162.1	40
1	1166089	162.3	50
1	1167188	162.5	60
1	1169356	162.929	70
1	1169356	162.929	80
1	1170266	163.1	90
1	1171630	163.3	100
1	1173931	163.73	110
1	1173931	163.73	120
1	1174817	163.9	130
1	1176080	164.1	140
1	1176909	164.3	150
1	1178198	164.5	160
1	1179393	164.7	170
1	1180321	164.9	180
1	1181615	165.1	190
1	1182726	165.3	200
1	1183821	165.5	210
1	1186139	165.932	220
1	1186139	165.932	230
1	1187046	166.1	240
1	1188273	166.3	250
1	1190385	166.731	260
1	1191668	166.96	270
1	1191668	166.96	280
1	1192595	167.1	290
1	1193876	167.3	300
1	1194967	167.5	300
1	1194980	167.5	310
1	1196095	167.7	20
1	1197180	167.9	30
1	1198180	168.1	40
1	1199396	168.3	50
1	1200519	168.5	60
1	1201087	168.7	70
1	1202452	168.9	80
1	1203883	169.1	90
1	1204976	169.3	100
1	1205920	169.5	110
1	1207143	169.7	120
1	1208275	169.9	130
1	1209408	170.1	140
1	1210515	170.3	150
1	1211610	170.5	160
1	1212699	170.7	170
1	1213794	170.9	180
1	1214927	171.1	190
1	1215766	171.3	200
1	1217025	171.5	210
1	1218244	171.7	220
1	1219188	171.9	230
1	1220448	172.1	240
1	1221593	172.3	250
1	1222680	172.5	260
1	1223773	172.7	270
1	1224872	172.9	280
1	1226015	173.1	290
1	1227110	173.3	300
1	1228193	173.5	300
1	1228206	173.5	310
1	1229323	173.7	20
1	1230408	173.9	30
1	1231553	174.1	40
1	1232658	174.3	50
1	1233751	174.5	60
1	1234842	174.7	70
1	1235798	174.9	80
1	1237092	175.1	90
vector 15 FastSMRModel.logicComputer[0].node[7] QdLengthVector:vector ETV
attr source QdLength
attr title "Qd Length, vector"
vector 16 FastSMRModel.logicComputer[0].node[6] QdLengthVector:vector ETV
attr source QdLength
attr title "Qd Length, vector"
vector 17 FastSMRModel.logicComputer[0].node[5] QdLengthVector:vector ETV
attr source QdLength
attr title "Qd Length, vector"
5	5594	10.1	30
5	7501	10.3	40
5	9290	10.5	50
5	11069	10.7	60
5	12846	10.9	70
5	14530	11.1	80
5	18006	11.5	80
5	20044	11.721	10
5	23333	12.14	20
5	23333	12.14	30
5	23333	12.14	40
5	23333	12.14	50
5	25242	12.3	60
5	27160	12.5	70
5	29146	12.7	80
5	31055	12.9	90
5	32876	13.1	100
5	34516	13.3	110
5	36145	13.5	120
5	37831	13.7	130
5	39706	13.9	140
5	41265	14.1	150
5	43639	14.3	160
5	45489	14.5	170
5	47282	14.7	180
5	48914	14.9	190
5	50700	15.1	200
5	52683	15.3	210
5	53829	15.5	220
5	56160	15.7	230
5	58090	15.9	240
5	59923	16.1	250
5	61704	16.3	260
5	63491	16.5	270
5	65278	16.7	280
5	66436	16.9	290
5	68150	17.1	300
5	70501	17.3	310
5	72496	17.5	310
5	72511	17.5	320
5	73738	17.7	320
5	75437	17.9	30
5	77597	18.1	40
5	79733	18.3	50
5	81634	18.5	60
5	83067	18.7	70
5	85059	18.9	80
5	89928	19.529	90
5	89928	19.529	100
5	89928	19.529	110
5	91593	19.7	120
5	93549	19.9	130
5	95513	20.1	140
5	96792	20.3	150
5	99580	20.5	160
5	101546	20.7	170
5	103331	20.9	180
5	105170	21.1	190
5	106933	21.3	200
5	108726	21.5	210
5	110213	21.7	220
5	111668	21.9	230
5	117216	22.52	240
5	119894	22.927	250
5	119894	22.927	260
5	119894	22.927	270
5	119894	22.927	280
5	121564	23.1	290
5	126152	23.5	290
5	127983	23.719	10
5	127983	23.719	20
5	127983	23.719	30
5	129888	23.9	40
5	131980	24.1	50
5	134006	24.3	60
5	139294	24.921	70
5	139294	24.921	80
5	139294	24.921	90
5	141106	25.1	100
5	143259	25.3	110
5	145036	25.5	120
5	146620	25.7	130
5	148273	25.9	140
5	150427	26.1	150
5	152248	26.3	160
5	154039	26.5	170
5	155822	26.7	180
5	157304	26.9	190
5	159020	27.1	200
5	160259	27.3	210
5	162372	27.5	220
5	163905	27.7	230
5	169042	28.326	240
5	169042	28.326	250
5	169042	28.326	260
5	170320	28.5	270
5	173502	28.7	280
5	175790	28.9	290
5	177312	29.1	300
5	179109	29.3	310
5	180891	29.5	310
5	180906	29.5	320
5	182443	29.7	320
5	184813	29.9	40
5	186709	30.1	50
5	188197	30.3	60
5	190195	30.5	70
5	192084	30.7	80
5	193682	30.9	90
5	195722	31.1	100
5	197501	31.3	110
5	198970	31.5	120
5	200449	31.7	130
5	202497	31.9	140
5	207585	32.519	150
5	207585	32.519	160
5	207585	32.519	170
5	209748	32.7	180
5	215597	33.319	190
5	215597	33.319	200
5	215597	33.319	210
5	217254	33.5	220
5	222837	34.12	230
5	222837	34.12	240
5	222837	34.12	250
5	224482	34.3	260
5	226403	34.5	270
5	228196	34.7	280
5	229973	34.9	290
5	231492	35.1	300
5	232959	35.3	310
5	235317	35.5	310
5	238328	35.919	10
5	238328	35.919	20
5	238328	35.919	30
5	240435	36.1	40
5	242708	36.3	50
5	244503	36.5	60
5	246288	36.7	70
5	248071	36.9	80
5	249896	37.1	90
5	251382	37.3	100
5	253374	37.5	110
5	258172	38.127	120
5	258172	38.127	130
5	258172	38.127	140
5	259623	38.3	150
5	262264	38.5	160
5	264287	38.7	170
5	265881	38.9	180
5	267915	39.1	190
5	269712	39.3	200
5	271485	39.5	210
5	273278	39.7	220
5	274737	39.9	230
5	276266	40.1	240
5	281550	40.721	250
5	281550	40.721	260
5	281550	40.721	270
5	283633	40.9	280
5	285615	41.1	290
5	287462	41.3	300
5	289293	41.5	300
5	289308	41.5	310
5	291390	41.7	320
5	293179	41.9	30
5	294692	42.1	40
5	300433	42.719	50
5	300433	42.719	60
5	300433	42.719	70
5	302080	42.9	80
5	304077	43.1	90
5	305850	43.3	100
5	307641	43.5	110
5	309104	43.7	120
5	310577	43.9	130
5	312983	44.1	140
5	318469	44.722	150
5	318469	44.722	160
5	318469	44.722	170
5	320114	44.9	180
5	321930	45.1	190
5	323869	45.3	200
5	325667	45.5	210
5	327456	45.7	220
5	329233	45.9	230
5	331078	46.1	240
5	332857	46.3	250
5	334636	46.5	260
5	339155	47.12	270
5	339155	47.12	280
5	339155	47.12	290
5	341340	47.3	300
5	343337	47.5	300
5	343352	47.5	310
5	345424	47.7	320
5	347315	47.9	40
5	348965	48.1	50
5	350947	48.3	60
5	352392	48.5	70
5	354503	48.7	80
5	356328	48.9	90
5	357954	49.1	100
5	359327	49.3	110
5	361003	49.5	120
5	363497	49.7	130
5	365353	49.9	140
5	367186	50.1	150
5	368965	50.3	160
5	370756	50.5	170
5	372543	50.7	180
5	374324	50.9	190
5	379757	51.52	200
5	379757	51.52	210
5	379757	51.52	220
5	381408	51.7	230
5	383329	51.9	240
5	390206	52.737	250
5	390206	52.737	260
5	390206	52.737	270
5	390206	52.737	280
5	391752	52.9	290
5	393747	53.1	300
5	395688	53.3	310
5	397544	53.5	310
5	397559	53.5	320
5	399642	53.7	320
5	401167	53.9	30
5	403205	54.1	40
5	405104	54.3	50
5	406879	54.5	60
5	408672	54.7	70
5	414109	55.321	80
5	417380	55.741	90
5	417380	55.741	100
5	417380	55.741	110
5	417380	55.741	120
5	418890	55.9	130
5	421157	56.1	140
5	422969	56.3	150
5	424951	56.5	160
5	426732	56.7	170
5	428199	56.9	180
5	429535	57.1	190
5	432094	57.3	200
5	433452	57.5	210
5	435647	57.7	220
5	437367	57.9	230
5	439397	58.1	240
5	441186	58.3	250
5	442969	58.5	260
5	444754	58.7	270
5	446234	58.9	280
5	450741	59.5	280
5	451260	59.52	290
5	451260	59.52	300
5	451260	59.52	310
5	453415	59.7	320
5	455640	59.9	50
5	457274	60.1	60
5	462117	60.719	70
5	462117	60.719	80
5	462117	60.719	90
5	464168	60.9	100
5	466300	61.1	110
5	468290	61.3	120
5	470085	61.5	130
5	471858	61.7	140
5	473458	61.9	150
5	475488	62.1	160
5	479388	62.721	170
5	479388	62.721	180
5	479388	62.721	190
5	481285	62.9	200
5	484016	63.1	210
5	485677	63.3	220
5	487937	63.5	230
5	489901	63.7	240
5	493889	64.322	250
5	493889	64.322	260
5	493889	64.322	270
5	495539	64.5	280
5	498430	64.7	290
5	500791	64.9	300
5	502623	65.1	310
5	504402	65.3	320
5	506187	65.5	320
5	506202	65.5	330
5	508041	65.7	320
5	509834	65.9	30
5	511657	66.1	40
5	513444	66.3	50
5	515233	66.5	60
5	517014	66.7	70
5	518805	66.9	80
5	520626	67.1	90
5	521961	67.3	100
5	524076	67.5	110
5	526017	67.7	120
5	527800	67.9	130
5	533235	68.519	140
5	533235	68.519	150
5	533235	68.519	160
5	534888	68.7	170
5	536504	68.9	180
5	538222	69.1	190
5	539620	69.3	200
5	542197	69.5	210
5	544053	69.7	220
5	545838	69.9	230
5	547675	70.1	240
5	549460	70.3	250
5	550921	70.5	260
5	552400	70.7	270
5	554455	70.9	280
5	556564	71.1	290
5	558469	71.3	300
5	560049	71.5	300
5	560064	71.5	310
5	561813	71.7	320
5	567446	72.319	30
5	567446	72.319	40
5	567446	72.319	50
5	568902	72.5	60
5	570502	72.7	70
5	571934	72.9	80
5	573416	73.1	90
5	574864	73.3	100
5	576303	73.5	110
5	577430	73.7	120
5	579081	73.9	130
5	580372	74.1	140
5	582031	74.3	150
5	583579	74.5	160
5	585027	74.7	170
5	586158	74.9	180
5	587857	75.1	190
5	591092	75.531	200
5	591092	75.531	210
5	592226	75.7	220
5	593754	75.9	230
5	595093	76.1	240
5	596489	76.3	250
5	598142	76.5	260
5	599580	76.7	270
5	601028	76.9	280
5	603742	77.329	290
5	603742	77.329	300
5	605084	77.5	300
5	605098	77.5	310
5	606930	77.7	20
5	608370	77.9	30
5	609854	78.1	40
5	611099	78.3	50
5	612748	78.5	60
5	613984	78.7	70
5	615444	78.9	80
5	618805	79.329	90
5	620305	79.563	100
5	621547	79.795	110
5	621547	79.795	120
5	622244	79.9	130
5	623858	80.1	140
5	625283	80.3	150
5	627084	80.5	160
5	628817	80.7	170
5	630313	80.9	180
5	631801	81.1	190
5	633233	81.3	200
5	634366	81.5	210
5	636023	81.7	220
5	637573	81.9	230
5	639057	82.1	240
5	640497	82.3	250
5	641792	82.5	260
5	643387	82.7	270
5	646115	83.13	280
5	646115	83.13	290
5	647495	83.3	300
5	649068	83.5	300
5	650410	83.732	10
5	650410	83.732	20
5	651759	83.9	30
5	653705	84.1	40
5	655151	84.3	50
5	656593	84.5	60
5	658021	84.7	70
5	659475	84.9	80
5	662636	85.331	90
5	662636	85.331	100
5	663788	85.5	110
5	665318	85.7	120
5	666748	85.9	130
5	668242	86.1	140
5	669670	86.3	150
5	671120	86.5	160
5	674357	86.944	170
5	674357	86.944	180
5	675361	87.1	190
5	676951	87.3	200
5	678391	87.5	210
5	679680	87.7	220
5	681256	87.9	230
5	682574	88.1	240
5	684227	88.3	250
5	685669	88.5	260
5	687101	88.7	270
5	688539	88.9	280
5	689838	89.1	290
5	691477	89.3	300
5	692909	89.5	300
5	692923	89.5	310
5	694411	89.7	20
5	695843	89.9	30
5	697333	90.1	40
5	698779	90.3	50
5	700203	90.5	60
5	701651	90.7	70
5	703097	90.9	80
5	704567	91.1	90
5	705669	91.3	100
5	707455	91.5	110
5	710602	91.93	120
5	712152	92.162	130
5	712152	92.162	140
5	712899	92.3	150
5	714719	92.5	160
5	716269	92.7	170
5	717406	92.9	180
5	719103	93.1	190
5	720655	93.3	200
5	722095	93.5	210
5	723529	93.7	220
5	724971	93.9	230
5	726455	94.1	240
5	727911	94.3	250
5	729329	94.5	260
5	730472	94.7	270
5	732119	94.9	280
5	733721	95.1	290
5	736062	95.5	290
5	736465	95.539	300
5	736465	95.539	310
5	737801	95.7	30
5	739561	95.9	40
5	741055	96.1	50
5	744158	96.529	60
5	744158	96.529	70
5	745316	96.7	80
5	748150	97.135	90
5	748150	97.135	100
5	751032	97.529	110
5	751032	97.529	120
5	752354	97.7	130
5	754005	97.9	140
5	755614	98.1	150
5	757080	98.3	160
5	758371	98.5	170
5	759965	98.7	180
5	763129	99.13	190
5	764784	99.36	200
5	764784	99.36	210
5	765694	99.5	220
5	768967	99.931	230
5	770511	100.164	240
5	770511	100.164	250
5	771258	100.3	260
5	773076	100.5	270
5	776049	100.931	280
5	777008	101.16	290
5	777008	101.16	300
5	778458	101.3	310
5	780490	101.5	310
5	780504	101.5	320
5	781996	101.7	20
5	783428	101.9	30
5	784916	102.1	40
5	786358	102.3	50
5	787790	102.5	60
5	789081	102.7	70
5	790686	102.9	80
5	792168	103.1	90
5	793411	103.3	100
5	794759	103.5	110
5	796400	103.7	120
5	797811	103.9	130
5	799448	104.1	140
5	800701	104.3	150
5	802356	104.5	160
5	803786	104.7	170
5	805230	104.9	180
5	806521	105.1	190
5	809833	105.53	200
5	809833	105.53	210
5	810983	105.7	220
5	812515	105.9	230
5	813995	106.1	240
5	815443	106.3	250
5	816875	106.5	260
5	818325	106.7	270
5	819763	106.9	280
5	821253	107.1	290
5	822695	107.3	300
5	824117	107.5	300
5	825864	107.733	10
5	825864	107.733	20
5	826972	107.9	30
5	828116	108.1	40
5	829882	108.3	50
5	833153	108.729	60
5	833153	108.729	70
5	834307	108.9	80
5	835873	109.1	90
5	837321	109.3	100
5	838760	109.5	110
5	840199	109.7	120
5	841627	109.9	130
5	842930	110.1	140
5	844571	110.3	150
5	847561	110.734	160
5	847561	110.734	170
5	850431	111.133	180
5	850431	111.133	190
5	851283	111.3	200
5	853257	111.5	210
5	854505	111.7	220
5	856161	111.9	230
5	857755	112.1	240
5	859062	112.3	250
5	860645	112.5	260
5	862099	112.7	270
5	863225	112.9	280
5	864929	113.1	290
5	866483	113.3	300
5	867911	113.5	300
5	867925	113.5	310
5	869405	113.7	20
5	870704	113.9	30
5	872335	114.1	40
5	873785	114.3	50
5	875223	114.5	60
5	876663	114.7	70
5	878103	114.9	80
5	879589	115.1	90
5	881023	115.3	100
5	882461	115.5	110
5	883895	115.7	120
5	885191	115.9	130
5	886825	116.1	140
5	890000	116.535	150
5	890000	116.535	160
5	891074	116.7	170
5	892630	116.9	180
5	893933	117.1	190
5	895564	117.3	200
5	897016	117.5	210
5	898303	117.7	220
5	899583	117.9	230
5	901040	118.1	240
5	902680	118.3	250
5	904312	118.5	260
5	905754	118.7	270
5	907043	118.9	280
5	908653	119.1	290
5	910120	119.3	300
5	911568	119.5	300
5	911582	119.5	310
5	913056	119.7	20
5	914492	119.9	30
5	915980	120.1	40
5	917115	120.3	50
5	918764	120.5	60
5	920318	120.7	70
5	921445	120.9	80
5	923060	121.1	90
5	924699	121.3	100
5	926142	121.5	110
5	929138	121.934	120
5	929138	121.934	130
5	930271	122.1	140
5	931974	122.3	150
5	933437	122.5	160
5	934570	122.7	170
5	936209	122.9	180
5	937626	123.1	190
5	939271	123.3	200
5	940709	123.5	210
5	943729	123.934	220
5	943729	123.934	230
5	944674	124.1	240
5	946197	124.3	250
5	947478	124.5	260
5	949277	124.7	270
5	950974	124.9	280
5	952468	125.1	290
5	953896	125.3	300
5	955025	125.5	300
5	955039	125.5	310
5	958390	125.93	30
5	959565	126.159	40
5	959565	126.159	50
5	960576	126.3	60
5	962740	126.5	70
5	964188	126.7	80
5	965612	126.9	90
5	967112	127.1	100
5	968550	127.3	110
5	969984	127.5	120
5	971428	127.7	130
5	972667	127.9	140
5	974358	128.1	150
5	975611	128.3	160
5	977250	128.5	170
5	978684	128.7	180
5	980138	128.9	190
5	981612	129.1	200
5	983050	129.3	210
5	984135	129.5	220
5	985228	129.7	230
5	986323	129.9	240
5	987469	130.1	250
5	988568	130.3	260
5	990852	130.73	270
5	990852	130.73	280
5	991779	130.9	290
5	993014	131.1	300
5	994109	131.3	310
5	995190	131.5	310
5	995203	131.5	320
5	996330	131.7	20
5	997417	131.9	30
5	998556	132.1	40
5	999657	132.3	50
5	1000750	132.5	60
5	1001845	132.7	70
5	1002936	132.9	80
5	1004079	133.1	90
5	1005180	133.3	100
5	1006273	133.5	110
5	1007374	133.7	120
5	1008461	133.9	130
5	1010805	134.331	140
5	1010805	134.331	150
5	1011726	134.5	160
5	1014390	135.021	170
5	1014390	135.021	180
5	1014871	135.1	190
5	1016264	135.3	200
5	1017357	135.5	210
5	1018462	135.7	220
5	1019557	135.9	230
5	1020686	136.1	240
5	1021793	136.3	250
5	1022573	136.5	260
5	1023879	136.7	270
5	1025092	136.9	280
5	1026229	137.1	290
5	1027017	137.3	300
5	1028152	137.5	300
5	1028165	137.5	310
5	1029563	137.7	20
5	1030658	137.9	30
5	1031809	138.1	40
5	1033648	138.529	50
5	1033648	138.529	60
5	1034751	138.7	70
5	1036206	138.9	80
5	1038586	139.335	90
5	1038586	139.335	100
5	1040752	139.729	110
5	1041993	139.963	120
5	1041993	139.963	130
5	1044125	140.33	140
5	1044125	140.33	150
5	1045052	140.5	160
5	1047458	140.932	170
5	1047458	140.932	180
5	1049696	141.33	190
5	1049696	141.33	200
5	1050643	141.5	210
5	1051820	141.7	220
5	1052907	141.9	230
5	1054056	142.1	240
5	1055153	142.3	250
5	1055973	142.5	260
5	1057159	142.7	270
5	1058456	142.9	280
5	1059585	143.1	290
5	1060684	143.3	300
5	1061775	143.5	300
5	1061788	143.5	310
5	1062895	143.7	20
5	1063691	143.9	30
5	1065039	144.1	40
5	1066248	144.3	50
5	1067341	144.5	60
5	1069685	144.938	70
5	1069685	144.938	80
5	1070574	145.1	90
5	1071793	145.3	100
5	1072577	145.5	110
5	1073734	145.7	120
5	1074941	145.9	130
5	1076229	146.1	140
5	1077358	146.3	150
5	1078449	146.5	160
5	1079554	146.7	170
5	1080496	146.9	180
5	1081786	147.1	190
5	1082895	147.3	200
5	1083986	147.5	210
5	1085075	147.7	220
5	1086170	147.9	230
5	1087315	148.1	240
5	1088416	148.3	250
5	1089503	148.5	260
5	1090598	148.7	270
5	1091693	148.9	280
5	1092840	149.1	290
5	1093929	149.3	300
5	1094861	149.5	300
5	1094874	149.5	310
5	1096155	149.7	20
5	1097256	149.9	30
5	1098378	150.1	40
5	1099493	150.3	50
5	1101678	150.732	60
5	1101678	150.732	70
5	1102402	150.9	80
5	1103851	151.1	90
5	1105062	151.3	100
5	1106016	151.5	110
5	1107269	151.7	120
5	1109618	152.131	130
5	1109618	152.131	140
5	1110531	152.3	150
5	1111728	152.5	160
5	1112514	152.7	170
5	1115189	153.132	180
5	1115189	153.132	190
5	1116092	153.3	200
5	1117132	153.5	210
5	1118385	153.7	220
5	1119491	153.9	230
5	1120618	154.1	240
5	1121717	154.3	250
5	1122812	154.5	260
5	1123905	154.7	270
5	1124851	154.9	280
5	1127360	155.331	290
5	1127360	155.331	300
5	1128267	155.5	300
5	1128280	155.5	310
5	1129487	155.7	20
5	1130584	155.9	30
5	1131723	156.1	40
5	1133578	156.53	50
5	1133578	156.53	60
5	1134679	156.7	70
5	1136138	156.9	80
5	1137275	157.1	90
5	1138053	157.3	100
5	1139047	157.5	110
5	1140577	157.7	120
5	1141683	157.9	130
5	1142826	158.1	140
5	1143610	158.3	150
5	1144916	158.5	160
5	1146129	158.7	170
5	1147220	158.9	180
5	1148367	159.1	190
5	1149452	159.3	200
5	1150565	159.5	210
5	1151646	159.7	220
5	1152745	159.9	230
5	1153888	160.1	240
5	1155743	160.531	250
5	1155743	160.531	260
5	1156924	160.7	270
5	1158297	160.9	280
5	1159442	161.1	290
5	1160541	161.3	300
5	1161630	161.5	300
5	1161643	161.5	310
5	1162766	161.7	20
5	1163849	161.9	30
5	1164997	162.1	40
5	1166091	162.3	50
5	1167190	162.5	60
5	1168285	162.7	70
5	1169067	162.9	80
5	1170268	163.1	90
5	1171632	163.3	100
5	1172727	163.5	110
5	1173523	163.7	120
5	1174819	163.9	130
5	1177289	164.331	140
5	1177289	164.331	150
5	1178200	164.5	160
5	1179395	164.7	170
5	1180323	164.9	180
5	1181617	165.1	190
5	1182728	165.3	200
5	1183823	165.5	210
5	1184922	165.7	220
5	1185710	165.9	230
5	1187048	166.1	240
5	1189337	166.529	250
5	1189337	166.529	260
5	1190087	166.7	270
5	1191080	166.9	280
5	1192597	167.1	290
5	1193878	167.3	300
5	1194969	167.5	300
5	1194982	167.5	310
5	1196097	167.7	20
5	1197182	167.9	30
5	1198182	168.1	40
5	1199398	168.3	50
5	1201289	168.732	60
5	1201289	168.732	70
5	1202454	168.9	80
5	1203885	169.1	90
5	1204978	169.3	100
5	1205922	169.5	110
5	1207145	169.7	120
5	1208277	169.9	130
5	1209410	170.1	140
5	1210517	170.3	150
5	1211612	170.5	160
5	1212701	170.7	170
5	1213796	170.9	180
5	1216188	171.337	190
5	1216188	171.337	200
5	1217027	171.5	210
5	1218246	171.7	220
5	1219190	171.9	230
5	1220450	172.1	240
5	1221595	172.3	250
5	1222682	172.5	260
5	1223775	172.7	270
5	1224874	172.9	280
5	1226017	173.1	290
5	1227112	173.3	300
5	1228195	173.5	300
5	1228208	173.5	310
5	1229325	173.7	20
5	1230410	173.9	30
5	1231555	174.1	40
5	1232660	174.3	50
5	1233753	174.5	60
5	1234844	174.7	70
5	1235800	174.9	80
5	1237094	175.1	90
5	1238189	175.3	100
5	1238949	175.5	110
5	1239695	175.7	120
5	1240449	175.9	130
5	1241245	176.1	140
5	1241998	176.3	150
5	1243470	177.324	160
5	1243470	177.324	170
5	1243470	177.324	180
5	1243470	177.324	190
5	1243470	177.324	200
5	1244840	177.5	210
5	1246683	177.7	220
5	1248426	177.9	230
5	1249508	178.1	240
5	1250623	178.3	250
5	1251727	178.5	260
5	1252873	178.7	270
5	1254066	178.9	280
5	1255442	179.1	290
5	1259910	179.5	290
5	1261840	179.62	300
5	1261840	179.62	310
5	1262765	179.7	320
5	1267549	180.217	330
5	1267549	180.217	340
5	1270273	180.3	350
5	1274310	180.5	360
5	1276074	180.7	370
5	1277813	180.9	380
5	1281819	181.1	390
5	1286792	181.3	400
5	1288660	181.5	410
5	1290672	181.7	420
5	1294173	182.218	430
5	1294173	182.218	440
5	1294885	182.3	450
5	1297364	182.5	460
5	1299558	182.7	470
5	1301498	182.9	480
5	1303192	183.1	490
5	1305112	183.3	500
5	1306919	183.5	510
5	1308697	183.7	520
5	1313286	184.226	530
5	1313286	184.226	540
5	1313836	184.3	550
5	1315937	184.5	560
5	1317728	184.7	570
5	1319517	184.9	580
5	1321368	185.1	300
5	1323165	185.3	310
5	1324944	185.5	310
5	1324956	185.5	320
5	1326756	185.7	110
5	1328550	185.9	120
3	5592	10.1	30
3	7499	10.3	40
3	9288	10.5	50
3	11067	10.7	60
3	14291	11.083	70
3	14528	11.1	80
3	16272	11.3	90
3	18004	11.5	90
3	18019	11.5	100
3	19559	11.7	30
3	21115	11.9	40
3	22412	12.1	50
3	25240	12.3	60
3	27158	12.5	70
3	29144	12.7	80
3	31053	12.9	90
3	34275	13.283	100
3	34514	13.3	110
3	37644	13.69	120
3	37829	13.7	130
3	39704	13.9	140
3	41263	14.1	150
3	43637	14.3	160
3	45487	14.5	170
3	48641	14.881	180
3	48912	14.9	190
3	50698	15.1	200
3	53550	15.485	210
3	53827	15.5	220
3	56158	15.7	230
3	58088	15.9	240
3	59921	16.1	250
3	61702	16.3	260
3	63489	16.5	270
3	65276	16.7	280
3	66434	16.9	290
3	70190	17.281	300
3	70499	17.3	310
3	72494	17.5	310
3	72509	17.5	320
3	73736	17.7	20
3	75435	17.9	30
3	77595	18.1	40
3	79731	18.3	50
3	82748	18.683	60
3	84771	18.882	70
3	85057	18.9	80
3	86752	19.1	90
3	88176	19.3	100
3	89428	19.5	110
3	91591	19.7	120
3	93547	19.9	130
3	95511	20.1	140
3	96790	20.3	150
3	99578	20.5	160
3	101544	20.7	170
3	103329	20.9	180
3	105168	21.1	190
3	106931	21.3	200
3	108724	21.5	210
3	110211	21.7	220
3	111666	21.9	230
3	114092	22.1	240
3	115679	22.3	250
3	116834	22.5	260
3	118096	22.7	270
3	119517	22.9	280
3	121562	23.1	290
3	124430	23.3	300
3	126150	23.5	300
3	126165	23.5	310
3	127499	23.7	30
3	129886	23.9	40
3	131978	24.1	50
3	134004	24.3	60
3	135991	24.5	70
3	137515	24.7	80
3	138776	24.9	90
3	141104	25.1	100
3	143257	25.3	110
3	145034	25.5	120
3	148082	25.89	130
3	148271	25.9	140
3	150425	26.1	150
3	152246	26.3	160
3	154037	26.5	170
3	155820	26.7	180
3	157302	26.9	190
3	159968	27.286	200
3	160257	27.3	210
3	162370	27.5	220
3	163903	27.7	230
3	166494	27.9	240
3	167937	28.1	250
3	168775	28.3	260
3	170318	28.5	270
3	173500	28.7	280
3	175788	28.9	290
3	177310	29.1	300
3	179107	29.3	310
3	180889	29.5	310
3	180904	29.5	320
3	182441	29.7	30
3	184811	29.9	40
3	186707	30.1	50
3	188195	30.3	60
3	190193	30.5	70
3	192082	30.7	80
3	193680	30.9	90
3	195720	31.1	100
3	197499	31.3	110
3	198968	31.5	120
3	200447	31.7	130
3	202495	31.9	140
3	204519	32.1	150
3	206253	32.3	160
3	209419	32.684	170
3	209746	32.7	180
3	211923	32.9	190
3	213521	33.1	200
3	214989	33.3	210
3	217252	33.5	220
3	219183	33.7	230
3	220709	33.9	240
3	222221	34.1	250
3	224480	34.3	260
3	226401	34.5	270
3	228194	34.7	280
3	229971	34.9	290
3	231490	35.1	300
3	232957	35.3	310
3	235315	35.5	310
3	235330	35.5	320
3	236698	35.7	20
3	237856	35.9	30
3	240433	36.1	40
3	242706	36.3	50
3	244501	36.5	60
3	246286	36.7	70
3	248069	36.9	80
3	249894	37.1	90
3	251380	37.3	100
3	253372	37.5	110
3	255267	37.7	120
3	256485	37.9	130
3	257674	38.1	140
3	259621	38.3	150
3	262262	38.5	160
3	264285	38.7	170
3	265879	38.9	180
3	267913	39.1	190
3	269710	39.3	200
3	271483	39.5	210
3	273276	39.7	220
3	274735	39.9	230
3	276264	40.1	240
3	282148	40.765	250
3	282148	40.765	260
3	282148	40.765	270
3	283631	40.9	280
3	287315	41.293	290
3	287460	41.3	300
3	289291	41.5	300
3	289306	41.5	310
3	291388	41.7	20
3	293177	41.9	30
3	294690	42.1	40
3	295850	42.3	50
3	298184	42.5	60
3	299829	42.7	70
3	302078	42.9	80
3	304075	43.1	90
3	305848	43.3	100
3	307639	43.5	110
3	309102	43.7	120
3	310575	43.9	130
3	312981	44.1	140
3	314656	44.3	150
3	316387	44.5	160
3	317859	44.7	170
3	321695	45.083	180
3	321928	45.1	190
3	323867	45.3	200
3	325665	45.5	210
3	327454	45.7	220
3	329231	45.9	230
3	331076	46.1	240
3	332855	46.3	250
3	334634	46.5	260
3	336427	46.7	270
3	338504	47.086	280
3	338687	47.1	290
3	341338	47.3	300
3	343335	47.5	300
3	343350	47.5	310
3	345422	47.7	30
3	347313	47.9	40
3	348963	48.1	50
3	352209	48.491	60
3	352390	48.5	70
3	354501	48.7	80
3	356326	48.9	90
3	357952	49.1	100
3	359325	49.3	110
3	361001	49.5	120
3	363495	49.7	130
3	365351	49.9	140
3	367184	50.1	150
3	368963	50.3	160
3	370754	50.5	170
3	372541	50.7	180
3	374322	50.9	190
3	376151	51.1	200
3	377677	51.3	210
3	379153	51.5	220
3	381406	51.7	230
3	383327	51.9	240
3	385156	52.1	250
3	386690	52.3	260
3	388167	52.5	270
3	389629	52.7	280
3	393550	53.082	290
3	393745	53.1	300
3	397343	53.486	310
3	397542	53.5	310
3	397557	53.5	320
3	399640	53.7	20
3	401165	53.9	30
3	403203	54.1	40
3	405102	54.3	50
3	406877	54.5	60
3	408670	54.7	70
3	410455	54.9	80
3	412029	55.1	90
3	413497	55.3	100
3	415261	55.5	110
3	416793	55.7	120
3	418888	55.9	130
3	421155	56.1	140
3	422967	56.3	150
3	424949	56.5	160
3	426730	56.7	170
3	428197	56.9	180
3	429533	57.1	190
3	432092	57.3	200
3	433450	57.5	210
3	435645	57.7	220
3	437365	57.9	230
3	439395	58.1	240
3	441184	58.3	250
3	442967	58.5	260
3	444752	58.7	270
3	446232	58.9	280
3	448266	59.1	290
3	449599	59.3	300
3	450739	59.5	300
3	450754	59.5	310
3	453413	59.7	40
3	455638	59.9	50
3	457272	60.1	60
3	459266	60.3	70
3	460481	60.5	80
3	461631	60.7	90
3	464166	60.9	100
3	466298	61.1	110
3	468288	61.3	120
3	470083	61.5	130
3	471856	61.7	140
3	473456	61.9	150
3	475486	62.1	160
3	476951	62.3	170
3	477856	62.5	180
3	478991	62.7	190
3	481283	62.9	200
3	484014	63.1	210
3	485675	63.3	220
3	487935	63.5	230
3	490732	63.883	240
3	490915	63.9	250
3	492285	64.1	260
3	493488	64.3	270
3	495537	64.5	280
3	498428	64.7	290
3	500789	64.9	300
3	502621	65.1	310
3	504400	65.3	320
3	506185	65.5	320
3	506200	65.5	330
3	508039	65.7	20
3	509832	65.9	30
3	511655	66.1	40
3	513442	66.3	50
3	515231	66.5	60
3	517012	66.7	70
3	518803	66.9	80
3	521798	67.291	90
3	521959	67.3	100
3	524074	67.5	110
3	526015	67.7	120
3	527798	67.9	130
3	529635	68.1	140
3	531149	68.3	150
3	532635	68.5	160
3	534886	68.7	170
3	536502	68.9	180
3	538220	69.1	190
3	539618	69.3	200
3	542195	69.5	210
3	544051	69.7	220
3	545836	69.9	230
3	547673	70.1	240
3	549458	70.3	250
3	550919	70.5	260
3	552398	70.7	270
3	554453	70.9	280
3	556562	71.1	290
3	558467	71.3	300
3	560047	71.5	300
3	560062	71.5	310
3	561811	71.7	20
3	563801	71.9	30
3	565497	72.1	40
3	566965	72.3	50
3	568901	72.5	60
3	570501	72.7	70
3	571933	72.9	80
3	573415	73.1	90
3	574863	73.3	100
3	576302	73.5	110
3	577429	73.7	120
3	579080	73.9	130
3	580371	74.1	140
3	582030	74.3	150
3	583578	74.5	160
3	585026	74.7	170
3	586157	74.9	180
3	587856	75.1	190
3	589406	75.3	200
3	590590	75.5	210
3	592225	75.7	220
3	594863	76.082	230
3	595092	76.1	240
3	596488	76.3	250
3	598141	76.5	260
3	599579	76.7	270
3	601027	76.9	280
3	602203	77.1	290
3	603324	77.3	300
3	605083	77.5	300
3	605097	77.5	310
3	606929	77.7	20
3	608369	77.9	30
3	609853	78.1	40
3	611098	78.3	50
3	612747	78.5	60
3	613983	78.7	70
3	615443	78.9	80
3	617132	79.1	90
3	618315	79.3	100
3	619716	79.5	110
3	620849	79.7	120
3	622243	79.9	130
3	623857	80.1	140
3	626870	80.488	150
3	627083	80.5	160
3	628816	80.7	170
3	630312	80.9	180
3	631800	81.1	190
3	633232	81.3	200
3	634365	81.5	210
3	636022	81.7	220
3	637572	81.9	230
3	639056	82.1	240
3	641570	82.482	250
3	641791	82.5	260
3	643386	82.7	270
3	644635	82.9	280
3	645743	83.1	290
3	648844	83.482	300
3	649067	83.5	300
3	649081	83.5	310
3	651493	83.883	20
3	651758	83.9	30
3	653704	84.1	40
3	655150	84.3	50
3	656592	84.5	60
3	658020	84.7	70
3	659474	84.9	80
3	660956	85.1	90
3	662144	85.3	100
3	663787	85.5	110
3	665317	85.7	120
3	666747	85.9	130
3	668241	86.1	140
3	669669	86.3	150
3	671119	86.5	160
3	672557	86.7	170
3	673735	86.9	180
3	675360	87.1	190
3	676950	87.3	200
3	679468	87.685	210
3	679679	87.7	220
3	681255	87.9	230
3	682573	88.1	240
3	684226	88.3	250
3	685668	88.5	260
3	687100	88.7	270
3	688538	88.9	280
3	689837	89.1	290
3	691476	89.3	300
3	692908	89.5	300
3	692922	89.5	310
3	694410	89.7	20
3	695842	89.9	30
3	697332	90.1	40
3	698778	90.3	50
3	700202	90.5	60
3	701650	90.7	70
3	703096	90.9	80
3	705365	91.283	90
3	705668	91.3	100
3	708389	91.683	110
3	708572	91.7	120
3	710108	91.9	130
3	711563	92.1	140
3	712898	92.3	150
3	714718	92.5	160
3	716268	92.7	170
3	717405	92.9	180
3	719102	93.1	190
3	720654	93.3	200
3	722094	93.5	210
3	723528	93.7	220
3	724970	93.9	230
3	726454	94.1	240
3	727910	94.3	250
3	729328	94.5	260
3	730471	94.7	270
3	732118	94.9	280
3	733720	95.1	290
3	736061	95.5	290
3	736897	95.583	300
3	736897	95.583	310
3	737800	95.7	30
3	739560	95.9	40
3	741054	96.1	50
3	742490	96.3	60
3	743674	96.5	70
3	745315	96.7	80
3	746839	96.9	90
3	747758	97.1	100
3	749401	97.3	110
3	750670	97.5	120
3	753813	97.888	130
3	754004	97.9	140
3	755613	98.1	150
3	758153	98.483	160
3	758370	98.5	170
3	759964	98.7	180
3	761415	98.9	190
3	762645	99.1	200
3	764050	99.3	210
3	765693	99.5	220
3	767291	99.7	230
3	768467	99.9	240
3	769917	100.1	250
3	771257	100.3	260
3	773075	100.5	270
3	774615	100.7	280
3	777382	101.203	290
3	777382	101.203	300
3	778457	101.3	310
3	780489	101.5	310
3	780503	101.5	320
3	781995	101.7	20
3	783427	101.9	30
3	784915	102.1	40
3	786357	102.3	50
3	788859	102.682	60
3	789080	102.7	70
3	790685	102.9	80
3	792167	103.1	90
3	793410	103.3	100
3	794758	103.5	110
3	797591	103.883	120
3	797810	103.9	130
3	799447	104.1	140
3	800700	104.3	150
3	802355	104.5	160
3	803785	104.7	170
3	805229	104.9	180
3	806520	105.1	190
3	808161	105.3	200
3	809335	105.5	210
3	810982	105.7	220
3	812514	105.9	230
3	813994	106.1	240
3	815442	106.3	250
3	816874	106.5	260
3	818324	106.7	270
3	819762	106.9	280
3	821252	107.1	290
3	822694	107.3	300
3	824116	107.5	300
3	824130	107.5	310
3	825356	107.7	320
3	827946	108.086	30
3	828115	108.1	40
3	829881	108.3	50
3	831473	108.5	60
3	832659	108.7	70
3	834306	108.9	80
3	835872	109.1	90
3	837320	109.3	100
3	838759	109.5	110
3	840198	109.7	120
3	841626	109.9	130
3	842929	110.1	140
3	844570	110.3	150
3	846010	110.5	160
3	848400	110.883	170
3	848647	110.9	180
3	850147	111.1	190
3	851282	111.3	200
3	853256	111.5	210
3	854504	111.7	220
3	856160	111.9	230
3	858838	112.282	240
3	859061	112.3	250
3	860644	112.5	260
3	862098	112.7	270
3	863224	112.9	280
3	864928	113.1	290
3	866482	113.3	300
3	867910	113.5	300
3	867924	113.5	310
3	870470	113.882	20
3	870703	113.9	30
3	872334	114.1	40
3	873784	114.3	50
3	875222	114.5	60
3	876662	114.7	70
3	878102	114.9	80
3	879588	115.1	90
3	881022	115.3	100
3	882460	115.5	110
3	884984	115.884	120
3	885190	115.9	130
3	886824	116.1	140
3	888272	116.3	150
3	889462	116.5	160
3	891073	116.7	170
3	892629	116.9	180
3	893932	117.1	190
3	895563	117.3	200
3	898081	117.683	210
3	898302	117.7	220
3	899582	117.9	230
3	901039	118.1	240
3	902679	118.3	250
3	904311	118.5	260
3	906831	118.885	270
3	907042	118.9	280
3	908652	119.1	290
3	910119	119.3	300
3	911567	119.5	300
3	911581	119.5	310
3	913055	119.7	20
3	914491	119.9	30
3	915979	120.1	40
3	917114	120.3	50
3	918763	120.5	60
3	920317	120.7	70
3	921444	120.9	80
3	923059	121.1	90
3	924698	121.3	100
3	926141	121.5	110
3	927582	121.7	120
3	930023	122.084	130
3	930270	122.1	140
3	931973	122.3	150
3	933436	122.5	160
3	934569	122.7	170
3	936208	122.9	180
3	937625	123.1	190
3	939270	123.3	200
3	940708	123.5	210
3	942156	123.7	220
3	943332	123.9	230
3	944673	124.1	240
3	947298	124.484	250
3	947477	124.5	260
3	949276	124.7	270
3	950973	124.9	280
3	952467	125.1	290
3	953895	125.3	300
3	955024	125.5	300
3	955038	125.5	310
3	956729	125.7	30
3	958023	125.9	40
3	959170	126.1	50
3	960575	126.3	60
3	962739	126.5	70
3	964187	126.7	80
3	965611	126.9	90
3	967111	127.1	100
3	968549	127.3	110
3	969983	127.5	120
3	971427	127.7	130
3	972666	127.9	140
3	974357	128.1	150
3	975610	128.3	160
3	977249	128.5	170
3	978683	128.7	180
3	980137	128.9	190
3	981611	129.1	200
3	983049	129.3	210
3	984134	129.5	220
3	985227	129.7	230
3	986322	129.9	240
3	987468	130.1	250
3	988567	130.3	260
3	989654	130.5	270
3	990487	130.7	280
3	991778	130.9	290
3	993013	131.1	300
3	994108	131.3	310
3	995189	131.5	310
3	995202	131.5	320
3	996329	131.7	20
3	997416	131.9	30
3	998555	132.1	40
3	999656	132.3	50
3	1000749	132.5	60
3	1001844	132.7	70
3	1002935	132.9	80
3	1004078	133.1	90
3	1005179	133.3	100
3	1006272	133.5	110
3	1007373	133.7	120
3	1008460	133.9	130
3	1009607	134.1	140
3	1010436	134.3	150
3	1011725	134.5	160
3	1012914	134.7	170
3	1013741	134.9	180
3	1014870	135.1	190
3	1016263	135.3	200
3	1017356	135.5	210
3	1018461	135.7	220
3	1019556	135.9	230
3	1020685	136.1	240
3	1021792	136.3	250
3	1022572	136.5	260
3	1023878	136.7	270
3	1025091	136.9	280
3	1026228	137.1	290
3	1027016	137.3	300
3	1028151	137.5	300
3	1028164	137.5	310
3	1029562	137.7	20
3	1030657	137.9	30
3	1031808	138.1	40
3	1032893	138.3	50
3	1033409	138.5	60
3	1034750	138.7	70
3	1036205	138.9	80
3	1037332	139.1	90
3	1038181	139.3	100
3	1039444	139.5	110
3	1040383	139.7	120
3	1041446	139.9	130
3	1042773	140.1	140
3	1043764	140.3	150
3	1045051	140.5	160
3	1046234	140.7	170
3	1047069	140.9	180
3	1048408	141.1	190
3	1049339	141.3	200
3	1050642	141.5	210
3	1051819	141.7	220
3	1052906	141.9	230
3	1054055	142.1	240
3	1056354	142.536	250
3	1056354	142.536	260
3	1057158	142.7	270
3	1058455	142.9	280
3	1059584	143.1	290
3	1060683	143.3	300
3	1061774	143.5	300
3	1061787	143.5	310
3	1062894	143.7	20
3	1063690	143.9	30
3	1065038	144.1	40
3	1066247	144.3	50
3	1067340	144.5	60
3	1068435	144.7	70
3	1069268	144.9	80
3	1070573	145.1	90
3	1071792	145.3	100
3	1073583	145.683	110
3	1074747	145.886	120
3	1074940	145.9	130
3	1076228	146.1	140
3	1077357	146.3	150
3	1078448	146.5	160
3	1080325	146.883	170
3	1080495	146.9	180
3	1081785	147.1	190
3	1082894	147.3	200
3	1083985	147.5	210
3	1085074	147.7	220
3	1086169	147.9	230
3	1087314	148.1	240
3	1088415	148.3	250
3	1089502	148.5	260
3	1090597	148.7	270
3	1091692	148.9	280
3	1092839	149.1	290
3	1094694	149.482	300
3	1094860	149.5	300
3	1094873	149.5	310
3	1096154	149.7	20
3	1097255	149.9	30
3	1098377	150.1	40
3	1100266	150.492	50
3	1100436	150.5	60
3	1101378	150.7	70
3	1102401	150.9	80
3	1103850	151.1	90
3	1105825	151.482	100
3	1106015	151.5	110
3	1108033	151.883	120
3	1108207	151.9	130
3	1109235	152.1	140
3	1110530	152.3	150
3	1111727	152.5	160
3	1112513	152.7	170
3	1113811	152.9	180
3	1114810	153.1	190
3	1116963	153.482	200
3	1117131	153.5	210
3	1118384	153.7	220
3	1119490	153.9	230
3	1120617	154.1	240
3	1121716	154.3	250
3	1122811	154.5	260
3	1124690	154.887	270
3	1124850	154.9	280
3	1126118	155.1	290
3	1126965	155.3	300
3	1128266	155.5	300
3	1128279	155.5	310
3	1129486	155.7	20
3	1130583	155.9	30
3	1131722	156.1	40
3	1132817	156.3	50
3	1133341	156.5	60
3	1134678	156.7	70
3	1136137	156.9	80
3	1137274	157.1	90
3	1138854	157.483	100
3	1139046	157.5	110
3	1140576	157.7	120
3	1141682	157.9	130
3	1142825	158.1	140
3	1143609	158.3	150
3	1144915	158.5	160
3	1146128	158.7	170
3	1147219	158.9	180
3	1148366	159.1	190
3	1149451	159.3	200
3	1150564	159.5	210
3	1151645	159.7	220
3	1152744	159.9	230
3	1153887	160.1	240
3	1156115	160.573	250
3	1156115	160.573	260
3	1156923	160.7	270
3	1158296	160.9	280
3	1159441	161.1	290
3	1160540	161.3	300
3	1161629	161.5	300
3	1161642	161.5	310
3	1162765	161.7	20
3	1163848	161.9	30
3	1164996	162.1	40
3	1166090	162.3	50
3	1167189	162.5	60
3	1168284	162.7	70
3	1170119	163.082	80
3	1170267	163.1	90
3	1171631	163.3	100
3	1172726	163.5	110
3	1173522	163.7	120
3	1174818	163.9	130
3	1176081	164.1	140
3	1176910	164.3	150
3	1178199	164.5	160
3	1180152	164.883	170
3	1180322	164.9	180
3	1181616	165.1	190
3	1182727	165.3	200
3	1183822	165.5	210
3	1184921	165.7	220
3	1185709	165.9	230
3	1187047	166.1	240
3	1188274	166.3	250
3	1189101	166.5	260
3	1190929	166.883	270
3	1191079	166.9	280
3	1192596	167.1	290
3	1193877	167.3	300
3	1194968	167.5	300
3	1194981	167.5	310
3	1196096	167.7	20
3	1198031	168.094	30
3	1198181	168.1	40
3	1199397	168.3	50
3	1201653	168.774	60
3	1201653	168.774	70
3	1202453	168.9	80
3	1203884	169.1	90
3	1205757	169.486	100
3	1205921	169.5	110
3	1207144	169.7	120
3	1208276	169.9	130
3	1209409	170.1	140
3	1210516	170.3	150
3	1211611	170.5	160
3	1212700	170.7	170
3	1213795	170.9	180
3	1214928	171.1	190
3	1215767	171.3	200
3	1217026	171.5	210
3	1219021	171.888	220
3	1219189	171.9	230
3	1220449	172.1	240
3	1221594	172.3	250
3	1222681	172.5	260
3	1223774	172.7	270
3	1224873	172.9	280
3	1226016	173.1	290
3	1227111	173.3	300
3	1228194	173.5	300
3	1228207	173.5	310
3	1229324	173.7	20
3	1230409	173.9	30
3	1231554	174.1	40
3	1232659	174.3	50
3	1233752	174.5	60
3	1235619	174.883	70
3	1235799	174.9	80
3	1237093	175.1	90
3	1238188	175.3	100
3	1238948	175.5	110
3	1239694	175.7	120
3	1240448	175.9	130
3	1241244	176.1	140
3	1241997	176.3	150
3	1245519	177.625	160
3	1245519	177.625	170
3	1245519	177.625	180
3	1245519	177.625	190
3	1245519	177.625	200
3	1245519	177.625	210
3	1246682	177.7	220
3	1248425	177.9	230
3	1249507	178.1	240
3	1250622	178.3	250
3	1251726	178.5	260
3	1252872	178.7	270
3	1254065	178.9	280
3	1255441	179.1	290
3	1257196	179.3	300
3	1259909	179.5	300
3	1259921	179.5	310
3	1262764	179.7	320
3	1265269	179.9	330
3	1269425	180.282	340
3	1270272	180.3	350
3	1276765	180.731	360
3	1278396	180.915	370
3	1278396	180.915	380
3	1281818	181.1	390
3	1288444	181.484	400
3	1288659	181.5	410
3	1290671	181.7	420
3	1292482	181.9	430
3	1293473	182.1	440
3	1294884	182.3	450
3	1299356	182.683	460
3	1299557	182.7	470
3	1302996	183.084	480
3	1303191	183.1	490
3	1305111	183.3	500
3	1306918	183.5	510
3	1308696	183.7	520
3	1310499	183.9	530
3	1312063	184.1	540
3	1313835	184.3	550
3	1315936	184.5	560
3	1317727	184.7	570
3	1319516	184.9	580
3	1321367	185.1	590
3	1323164	185.3	310
3	1324943	185.5	310
3	1324955	185.5	320
3	1326755	185.7	110
3	1328549	185.9	120
3	1330361	186.1	130
3	1331839	186.3	140
3	1333279	186.5	150
3	1334723	186.7	160
3	1336150	186.9	170
3	1343710	189.1	180
3	1351709	189.503	190
3	1351709	189.503	200
3	1351709	189.503	210
3	1351709	189.503	220
3	1351709	189.503	230
3	1351709	189.503	240
3	1351709	189.503	250
3	1356668	189.906	200
3	1356668	189.906	210
3	1356668	189.906	220
3	1356668	189.906	230
3	1356668	189.906	240
3	1356668	189.906	250
3	1360538	190.312	260
3	1361720	190.529	270
3	1361720	190.529	280
3	1361720	190.529	290
3	1362954	190.7	300
3	1364581	190.9	310
3	1366922	191.1	320
3	1368413	191.3	300
3	1369829	191.5	300
3	1369840	191.5	310
3	1371295	191.7	110
3	1372755	191.9	120
3	1374231	192.1	130
3	1378021	192.702	140
3	1378021	192.702	150
3	1378021	192.702	160
3	1379314	192.9	170
3	1381445	193.1	180
3	1382976	193.3	190
3	1384410	193.5	200
3	1385852	193.7	210
3	1387298	193.9	220
3	1388784	194.1	230
3	1390226	194.3	240
3	1391496	194.5	250
3	1393094	194.7	260
3	1394544	194.9	270
3	1396038	195.1	280
3	1397476	195.3	290
3	1398920	195.5	300
3	1400075	195.7	310
3	1401214	195.9	270
3	1403229	196.1	280
3	1404762	196.3	290
3	1406202	196.5	300
3	1407646	196.7	310
3	1408820	196.9	320
3	1410564	197.1	320
3	1412046	197.3	300
3	1413482	197.5	300
3	1413493	197.5	310
3	1414384	197.7	110
17	1255947	179.137	160
17	1259503	179.455	170
17	1263750	179.776	180
17	1266669	180.094	190
17	1272258	180.41	200
17	1276635	180.729	210
17	1279446	181.047	220
17	1279446	181.047	230
17	1279446	181.047	240
17	1279446	181.047	250
17	1279446	181.047	260
17	1279446	181.047	270
17	1279446	181.047	280
17	1279446	181.047	290
17	1279446	181.047	300
17	1279446	181.047	310
17	1279446	181.047	320
17	1279446	181.047	330
17	1279446	181.047	340
17	1279446	181.047	350
17	1279446	181.047	360
17	1279446	181.047	370
17	1279446	181.047	380
17	1281822	181.1	390
17	1286795	181.3	400
17	1288663	181.5	410
17	1290675	181.7	420
17	1296618	182.437	430
17	1296618	182.437	440
17	1296618	182.437	450
17	1297367	182.5	460
17	1299561	182.7	470
17	1301501	182.9	480
17	1303195	183.1	490
17	1305115	183.3	500
17	1306922	183.5	510
17	1308700	183.7	520
17	1310503	183.9	530
17	1312067	184.1	540
17	1313839	184.3	550
17	1315940	184.5	560
17	1317731	184.7	570
17	1319505	184.9	570
17	1319520	184.9	580
17	1321371	185.1	300
17	1323168	185.3	310
17	1324959	185.5	320
17	1326759	185.7	330
17	1328553	185.9	120
17	1330364	186.1	130
17	1331842	186.3	140
17	1333282	186.5	150
17	1334726	186.7	160
17	1336153	186.9	170
17	1338954	188.8	180
17	1338954	188.8	190
17	1338954	188.8	200
17	1338954	188.8	210
17	1338954	188.8	220
17	1338954	188.8	230
17	1338954	188.8	240
17	1342803	189.03	250
17	1342803	189.03	260
17	1342803	189.03	270
17	1343713	189.1	280
17	1347185	189.3	290
17	1355170	189.727	300
17	1355170	189.727	310
17	1356187	189.9	260
17	1358963	190.1	270
17	1360183	190.3	280
17	1361267	190.5	290
17	1364566	190.9	290
17	1365124	190.93	300
17	1365124	190.93	310
17	1366925	191.1	290
17	1368416	191.3	300
17	1369843	191.5	310
17	1371298	191.7	110
17	1372758	191.9	120
17	1374234	192.1	130
17	1375682	192.3	140
17	1376851	192.5	150
17	1377696	192.7	160
17	1379317	192.9	170
17	1381448	193.1	180
17	1382979	193.3	190
17	1384413	193.5	200
17	1385855	193.7	210
17	1387301	193.9	220
17	1388787	194.1	230
17	1390229	194.3	240
17	1391499	194.5	250
17	1393097	194.7	260
17	1394547	194.9	270
17	1396041	195.1	280
17	1397479	195.3	290
17	1398923	195.5	300
17	1400078	195.7	310
17	1401217	195.9	270
17	1403232	196.1	280
17	1404765	196.3	290
17	1406205	196.5	300
17	1408809	196.9	300
17	1409368	196.927	300
17	1409368	196.927	310
17	1410567	197.1	290
17	1412049	197.3	300
17	1414774	197.728	100
17	1414774	197.728	110
17	1415763	197.9	120
17	1417515	198.1	130
17	1418698	198.3	140
17	1419787	198.5	150
17	1420884	198.7	160
17	1421986	198.9	170
17	1426075	200.451	180
17	1426075	200.451	190
17	1426075	200.451	200
17	1430066	200.702	210
17	1430066	200.702	220
17	1430066	200.702	230
17	1430066	200.702	240
17	1430066	200.702	250
17	1430066	200.702	260
17	1432933	200.9	270
17	1434274	201.1	280
17	1435088	201.3	290
17	1437812	201.763	300
17	1437812	201.763	310
17	1439930	202.153	270
17	1439930	202.153	280
17	1440579	202.3	290
17	1441970	202.5	300
17	1443203	202.7	310
17	1444277	202.9	310
17	1444290	202.9	320
17	1445451	203.1	320
17	1446260	203.3	90
17	1447305	203.5	100
17	1448486	203.7	110
17	1449879	203.9	120
17	1451018	204.1	130
17	1452113	204.3	140
17	1453210	204.5	150
17	1454297	204.7	160
17	1455408	204.9	170
17	1456543	205.1	180
17	1457636	205.3	190
17	1458737	205.5	200
17	1459828	205.7	210
17	1462120	206.155	220
17	1464058	206.592	230
17	1464058	206.592	240
17	1464058	206.592	250
17	1465167	206.7	260
17	1467619	207.152	270
17	1468918	207.408	280
17	1468918	207.408	290
17	1469580	207.5	300
17	1470979	207.7	310
17	1472082	207.9	260
17	1473221	208.1	270
17	1474316	208.3	280
17	1475409	208.5	290
17	1476510	208.7	300
17	1477598	208.9	300
17	1477611	208.9	310
17	1478762	209.1	80
17	1480943	209.553	90
17	1480943	209.553	100
17	1481666	209.7	110
17	1483092	209.9	120
17	1484317	210.1	130
17	1485124	210.3	140
17	1487659	210.751	150
17	1487659	210.751	160
17	1488575	210.9	170
17	1489884	211.1	180
17	1490989	211.3	190
17	1492080	211.5	200
17	1493173	211.7	210
17	1494272	211.9	220
17	1496691	212.352	230
17	1496691	212.352	240
17	1498791	212.753	250
17	1498791	212.753	260
17	1501028	213.154	270
17	1501028	213.154	280
17	1501727	213.3	290
17	1503122	213.5	300
17	1504356	213.7	310
17	1505459	213.9	260
17	1506594	214.1	270
17	1507685	214.3	280
17	1508780	214.5	290
17	1509593	214.7	300
17	1510843	214.9	300
17	1510856	214.9	310
17	1511882	215.1	80
17	1514459	215.573	90
17	1514459	215.573	100
17	1515302	215.7	110
17	1516585	215.9	120
17	1517449	216.1	130
17	1518788	216.3	140
17	1519928	216.5	150
17	1520747	216.7	160
17	1522010	216.9	170
17	1523281	217.1	180
17	1524382	217.3	190
17	1525483	217.5	200
17	1526576	217.7	210
17	1527661	217.9	220
17	1530080	218.351	230
17	1530080	218.351	240
17	1530900	218.5	250
17	1532111	218.7	260
17	1533201	218.9	270
17	1534341	219.1	280
17	1535448	219.3	290
17	1536535	219.5	300
17	1537350	219.7	310
17	1538668	219.9	260
17	1541159	220.353	270
17	1541159	220.353	280
17	1541971	220.5	290
17	1543188	220.7	300
17	1543999	220.9	300
17	1544012	220.9	310
17	1545410	221.1	80
17	1546559	221.3	90
17	1547657	221.5	100
17	1548747	221.7	110
17	1549558	221.9	120
17	1550879	222.1	130
17	1552106	222.3	140
17	1553203	222.5	150
17	1554293	222.7	160
17	1555389	222.9	170
17	1556536	223.1	180
17	1559086	223.697	190
17	1559086	223.697	200
17	1561101	223.951	210
17	1561101	223.951	220
17	1561971	224.1	230
17	1563190	224.3	240
17	1564277	224.5	250
17	1566642	224.952	260
17	1566642	224.952	270
17	1567508	225.1	280
17	1568723	225.3	290
17	1569538	225.5	300
17	1570804	225.7	310
17	1572041	225.9	270
17	1573182	226.1	280
17	1574275	226.3	290
17	1575377	226.5	300
17	1576469	226.7	310
17	1577553	226.9	310
17	1577566	226.9	320
17	1579925	227.351	80
17	1579925	227.351	90
17	1580835	227.5	100
17	1582054	227.7	110
17	1583153	227.9	120
17	1585757	228.496	130
17	1587453	228.748	140
17	1587453	228.748	150
17	1587453	228.748	160
17	1590553	229.301	170
17	1590553	229.301	180
17	1590553	229.301	190
17	1592006	229.5	200
17	1593165	229.7	210
17	1593991	229.9	220
17	1595341	230.1	230
17	1596524	230.3	240
17	1597619	230.5	250
17	1598708	230.7	260
17	1599534	230.9	270
17	1600900	231.1	280
17	1602069	231.3	290
17	1603158	231.5	300
17	1605555	231.957	250
17	1606674	232.218	260
17	1606674	232.218	270
17	1607113	232.3	280
17	1608626	232.5	290
17	1609574	232.7	300
17	1610353	232.9	300
17	1610366	232.9	310
17	1611991	233.1	320
17	1613246	233.3	90
17	1614331	233.5	100
17	1615432	233.7	110
17	1616525	233.9	120
17	1617668	234.1	130
17	1618763	234.3	140
[...]
14	6813123	950.158	0.258
14	6814228	950.359	0.259
14	6815314	950.557	0.257
14	6816414	950.758	0.258
14	6817505	950.958	0.258
14	6818634	951.157	0.257
14	6819804	951.366	0.266
14	6820855	951.562	0.262
14	6821774	951.759	0.259
14	6822799	951.959	0.259
14	6824138	952.157	0.257
14	6825284	952.359	0.259
14	6826299	952.571	0.271
14	6827312	952.768	0.268
14	6828533	952.957	0.257
14	6829718	953.157	0.257
14	6830661	953.358	0.258
14	6831585	953.561	0.261
14	6832879	953.762	0.262
14	6834149	953.96	0.26
14	6835279	954.158	0.258
14	6836375	954.358	0.258
14	6837474	954.559	0.259
14	6838470	954.766	0.266
14	6839520	954.972	0.272
14	6840798	955.158	0.258
14	6841902	955.357	0.257
14	6842941	955.57	0.27
14	6843956	955.767	0.267
14	6845223	955.958	0.258
14	6846410	956.161	0.261
14	6847479	956.358	0.258
14	6848623	956.565	0.265
14	6849685	956.76	0.26
14	6850783	956.96	0.26
14	6851809	957.161	0.261
14	6852757	957.361	0.261
14	6853964	957.56	0.26
14	6854933	957.758	0.258
14	6855950	957.961	0.261
14	6857428	958.158	0.258
14	6858427	958.36	0.26
14	6859438	958.558	0.258
14	6860597	958.757	0.257
14	6861719	958.958	0.258
14	6863019	959.158	0.258
14	6864035	959.367	0.267
14	6865057	959.566	0.266
14	6866258	959.766	0.266
14	6867147	959.967	0.267
14	6868451	960.158	0.258
14	6869715	960.358	0.258
14	6870686	960.559	0.259
14	6871749	960.758	0.258
14	6873027	960.961	0.261
14	6874143	961.158	0.258
14	6875258	961.36	0.26
14	6876181	961.558	0.258
14	6877502	961.914	0.414
14	6878296	962.01	0.31
14	6879588	962.158	0.258
14	6880855	962.362	0.262
14	6881912	962.557	0.257
14	6882930	962.768	0.268
14	6883714	962.971	0.271
14	6884409	963.166	0.266
14	6885763	963.358	0.258
14	6887342	963.557	0.257
14	6888592	963.757	0.257
14	6889602	963.963	0.263
14	6890511	964.158	0.258
14	6891465	964.358	0.258
14	6892806	964.557	0.257
14	6893920	964.759	0.259
14	6895098	964.957	0.257
14	6896252	965.158	0.258
14	6897348	965.358	0.258
14	6898373	965.558	0.258
14	6899673	965.757	0.257
14	6900804	965.957	0.257
14	6901803	966.158	0.258
14	6902825	966.358	0.258
14	6904125	966.558	0.258
14	6905147	966.759	0.259
14	6906031	966.957	0.257
14	6907260	967.157	0.257
14	6908586	967.359	0.259
14	6909704	967.558	0.258
14	6910696	967.758	0.258
14	6911781	967.96	0.26
14	6913077	968.158	0.258
14	6914188	968.361	0.261
14	6915191	968.573	0.273
14	6916194	968.766	0.266
14	6917361	968.964	0.264
14	6918396	969.16	0.26
14	6919606	969.367	0.267
14	6920692	969.588	0.288
14	6921895	969.757	0.257
14	6922919	969.958	0.258
14	6924017	970.157	0.257
14	6925299	970.36	0.26
14	6926249	970.557	0.257
14	6927352	970.762	0.262
14	6928411	970.957	0.257
14	6929507	971.16	0.26
14	6930789	971.358	0.258
14	6931930	971.558	0.258
14	6933024	971.758	0.258
14	6934117	971.957	0.257
14	6935260	972.157	0.257
14	6936376	972.36	0.26
14	6937450	972.557	0.257
14	6938544	972.758	0.258
14	6939645	972.958	0.258
14	6940779	973.157	0.257
14	6941753	973.357	0.257
14	6942869	973.563	0.263
14	6944081	973.759	0.259
14	6945185	973.959	0.259
14	6946324	974.157	0.257
14	6947295	974.361	0.261
14	6948286	974.557	0.257
14	6949480	974.758	0.258
14	6950554	974.957	0.257
14	6951877	975.157	0.257
14	6952977	975.358	0.258
14	6953918	975.559	0.259
14	6954927	975.758	0.258
14	6956146	975.963	0.263
14	6957092	976.157	0.257
14	6958306	976.36	0.26
14	6959453	976.576	0.276
14	6960366	976.76	0.26
14	6961845	976.961	0.261
14	6963007	977.16	0.26
14	6964083	977.357	0.257
14	6965192	977.558	0.258
14	6966297	977.759	0.259
14	6967405	977.96	0.26
14	6968529	978.157	0.257
14	6969619	978.357	0.257
14	6970717	978.557	0.257
14	6971806	978.758	0.258
14	6972902	978.957	0.257
14	6974054	979.159	0.259
14	6975151	979.359	0.259
14	6976243	979.558	0.258
14	6977323	979.757	0.257
14	6978315	979.959	0.259
14	6979464	980.162	0.262
14	6980686	980.358	0.258
14	6981798	980.56	0.26
14	6982759	980.767	0.267
14	6983507	980.968	0.268
14	6984298	981.167	0.267
14	6985048	981.367	0.267
14	6985792	981.566	0.266
14	6988247	983.766	1.866
14	6988266	983.767	1.667
14	6988274	983.768	2.268
14	6988275	983.768	2.068
14	6990400	984.055	1.555
14	6990415	984.055	0.955
14	6990445	984.056	1.356
14	6990449	984.056	0.756
14	6990469	984.057	1.757
14	6990476	984.057	1.157
14	6990482	984.057	0.557
14	6990506	984.06	0.36
14	6991594	984.169	0.269
14	6994150	986.744	2.644
14	6997426	988.95	4.65
14	6999643	989.282	3.982
14	6999665	989.283	4.783
14	6999672	989.283	4.183
14	6999696	989.284	4.584
14	6999700	989.284	4.384
14	7002470	989.619	4.119
14	7002473	989.619	3.919
14	7002510	989.62	3.52
14	7002529	989.621	3.721
14	7002537	989.621	3.121
14	7002563	989.623	3.323
14	7004134	989.95	3.25
14	7004139	989.95	3.05
14	7009295	990.281	2.381
14	7009303	990.281	1.981
14	7009321	990.281	1.181
14	7009361	990.282	3.182
14	7009385	990.282	1.382
14	7009413	990.283	2.983
14	7009417	990.283	2.583
14	7009424	990.283	1.583
14	7009465	990.285	1.785
14	7009477	990.287	2.787
14	7009496	990.29	2.19
14	7011763	990.612	1.312
14	7015508	990.942	1.442
14	7015515	990.942	1.042
14	7015520	990.942	0.842
14	7015527	990.942	0.642
14	7015528	990.942	0.442
14	7015553	990.943	1.243
14	7017141	991.114	0.414
14	7021396	991.643	0.743
14	7021415	991.644	0.544
14	7022021	991.713	0.413
14	7023695	991.914	0.414
14	7030469	992.114	0.414
14	7039148	992.237	0.337
14	7045649	992.367	0.267
14	7049510	992.568	0.268
14	7052564	992.745	0.245
14	7054984	992.95	0.25
14	7056755	993.144	0.244
14	7059558	993.37	0.27
14	7061413	993.545	0.245
14	7063276	993.744	0.244
14	7064904	993.945	0.245
14	7066021	994.144	0.244
14	7066509	994.343	0.243
14	7067018	994.546	0.246
14	7067502	994.744	0.244
14	7067989	994.943	0.243
14	7074172	998.943	2.243
14	7074187	998.943	1.843
14	7074195	998.943	1.443
14	7074311	998.944	3.244
14	7074321	998.944	2.844
14	7074345	998.944	1.644
14	7074357	998.944	1.244
14	7074398	998.945	4.045
14	7074400	998.945	3.845
14	7074407	998.945	3.045
14	7074422	998.945	2.045
14	7074464	998.946	3.446
14	7074467	998.946	2.646
14	7074502	998.947	3.647
14	7074541	998.949	2.449
14	7076045	999.063	1.163
14	7077586	999.18	0.88
14	7077595	999.18	0.68
14	7077671	999.183	0.483
14	7078029	999.225	1.125
14	7078478	999.299	0.399
14	7078913	999.344	0.244
14	7080059	999.545	0.245
14	7082343	999.747	0.247
14	7084332	999.943	0.243
14	7086348	1000.144	0.244
14	7091304	1000.344	0.244
14	7097137	1000.547	0.247
14	7099528	1000.744	0.244
14	7100865	1000.949	0.249
14	7101699	1001.145	0.245
14	7105039	1001.343	0.243
14	7108224	1001.544	0.244
14	7110934	1001.745	0.245
14	7118479	1001.943	0.243
14	7131317	1002.143	0.243
14	7139857	1002.355	0.255
14	7143330	1002.547	0.247
14	7146987	1002.744	0.244
14	7149841	1002.944	0.244
14	7156254	1003.143	0.243
14	7158894	1003.348	0.248
14	7164240	1003.543	0.243
14	7167310	1003.748	0.248
14	7169553	1003.943	0.243
14	7171315	1004.143	0.243
14	7172892	1004.343	0.243
14	7174034	1004.544	0.244
14	7175196	1004.768	0.268
14	7176231	1004.944	0.244
14	7177370	1005.145	0.245
14	7178456	1005.344	0.244
14	7179555	1005.543	0.243
14	7180661	1005.744	0.244
14	7181629	1005.951	0.251
14	7182437	1006.144	0.244
14	7183720	1006.343	0.243
14	7185097	1006.543	0.243
14	7186232	1006.747	0.247
14	7187234	1006.967	0.267
14	7188012	1007.149	0.249
14	7189266	1007.343	0.243
14	7190651	1007.544	0.244
14	7191767	1007.746	0.246
14	7192829	1007.943	0.243
14	7193985	1008.144	0.244
14	7195090	1008.345	0.245
14	7196175	1008.544	0.244
14	7197112	1008.745	0.245
14	7197843	1008.943	0.243
14	7198646	1009.144	0.244
14	7199414	1009.349	0.249
14	7200140	1009.544	0.244
14	7202444	1011.289	1.389
14	7202480	1011.292	1.592
14	7202485	1011.293	1.793
14	7205696	1012.718	2.018
14	7205709	1012.718	1.618
14	7205716	1012.718	1.418
14	7205728	1012.718	1.018
14	7205755	1012.718	0.418
14	7205827	1012.719	2.219
14	7205860	1012.719	0.619
14	7205917	1012.72	1.22
14	7205958	1012.722	2.422
14	7205961	1012.722	1.822
14	7205974	1012.724	2.624
14	7206505	1012.763	0.863
14	7219500	1015.333	2.833
14	7221207	1015.673	2.773
14	7221237	1015.675	2.575
14	7222567	1015.717	3.017
14	7225668	1015.889	1.989
14	7225723	1015.89	2.39
14	7225734	1015.89	1.79
14	7225823	1015.892	2.592
14	7225842	1015.893	2.193
14	7225843	1015.893	1.593
14	7229489	1016.077	1.177
14	7229523	1016.078	1.578
14	7229538	1016.078	0.778
14	7229552	1016.079	1.379
14	7229554	1016.079	0.979
14	7229558	1016.079	0.579
14	7229682	1016.09	0.39
14	7231729	1016.302	0.402
14	7234828	1016.49	0.39
14	7237221	1016.691	0.391
14	7239293	1016.898	0.398
14	7242373	1017.029	0.329
14	7244219	1017.143	0.243
14	7247526	1017.346	0.246
14	7249295	1017.543	0.243
14	7251017	1017.744	0.244
14	7252689	1017.943	0.243
14	7254619	1018.143	0.243
14	7256661	1018.343	0.243
14	7258568	1018.547	0.247
14	7260404	1018.744	0.244
14	7262254	1018.943	0.243
14	7264215	1019.143	0.243
14	7266107	1019.345	0.245
14	7269434	1019.543	0.243
14	7272886	1019.743	0.243
14	7274813	1019.945	0.245
48	6995126	987.607	330
48	6995353	987.806	330
48	6995639	988.001	330
48	6995901	988.208	330
48	6996187	988.427	330
48	6996505	988.628	330
48	6997007	988.829	330
48	6997615	989.027	330
48	6999267	989.222	330
48	7000859	989.418	330
48	7002325	989.612	330
48	7003396	989.809	330
48	7004392	990.003	330
48	7007494	990.199	340
48	7007494	990.199	350
48	7007494	990.199	360
48	7010059	990.394	370
48	7011496	990.59	380
48	7013324	990.785	390
48	7015775	990.98	400
48	7015775	990.98	410
48	7017458	991.175	420
48	7018707	991.37	430
48	7020569	991.565	440
48	7022325	991.765	450
48	7023939	991.96	460
48	7023939	991.96	470
48	7023939	991.96	480
48	7023939	991.96	490
48	7023939	991.96	500
48	7023939	991.96	510
48	7023939	991.96	520
48	7023939	991.96	530
48	7023939	991.96	540
48	7023939	991.96	550
48	7023939	991.96	560
48	7023939	991.96	570
48	7023939	991.96	580
48	7023939	991.96	590
48	7023939	991.96	600
48	7023939	991.96	610
48	7023939	991.96	620
48	7023939	991.96	630
48	7023939	991.96	640
48	7030695	992.155	650
48	7044938	992.352	660
48	7044938	992.352	670
48	7044938	992.352	680
48	7048494	992.549	690
48	7048494	992.549	700
48	7048494	992.549	710
48	7048494	992.549	720
48	7048494	992.549	730
48	7048494	992.549	740
48	7048494	992.549	750
48	7051423	992.7	760
48	7053954	992.9	770
48	7055942	993.1	780
48	7058260	993.3	790
48	7060424	993.5	790
48	7060437	993.5	800
48	7062545	993.7	810
48	7064188	993.9	820
48	7065542	994.1	830
48	7066191	994.3	840
48	7066680	994.5	850
48	7067173	994.7	860
48	7067676	994.9	540
48	7071460	998.9	500
48	7071460	998.9	510
48	7071460	998.9	520
48	7071460	998.9	530
48	7071460	998.9	540
48	7071460	998.9	550
48	7071460	998.9	560
48	7071460	998.9	570
48	7071460	998.9	580
48	7071460	998.9	590
48	7071460	998.9	600
48	7071460	998.9	610
48	7071460	998.9	620
48	7071460	998.9	630
48	7071460	998.9	640
48	7075553	999.019	650
48	7076827	999.137	660
48	7076827	999.137	670
48	7076827	999.137	680
48	7076827	999.137	690
48	7078171	999.255	700
48	7078491	999.3	710
48	7079698	999.5	710
48	7079710	999.5	720
48	7081352	999.7	730
48	7083160	999.9	740
48	7085721	1000.1	750
48	7089875	1000.3	760
48	7095139	1000.5	770
48	7098429	1000.7	780
48	7100316	1000.9	740
48	7101329	1001.1	750
48	7104444	1001.3	760
48	7106843	1001.5	770
48	7110122	1001.7	780
48	7116964	1001.9	790
48	7127162	1002.1	800
48	7136435	1002.3	810
48	7142416	1002.5	820
48	7145906	1002.7	830
48	7149279	1002.9	840
48	7154696	1003.1	850
48	7157804	1003.3	860
48	7162278	1003.5	870
48	7165995	1003.7	880
48	7168456	1003.9	890
48	7170428	1004.1	900
48	7172197	1004.3	910
48	7173385	1004.5	920
48	7174481	1004.7	930
48	7175578	1004.9	940
48	7176715	1005.1	950
48	7177814	1005.3	960
48	7178896	1005.5	960
48	7178909	1005.5	970
48	7180017	1005.7	980
48	7181108	1005.9	990
48	7181963	1006.1	1000
48	7183028	1006.3	1010
48	7184457	1006.5	1020
48	7185559	1006.7	1030
48	7186660	1006.9	160
48	7187504	1007.1	170
48	7188569	1007.3	180
48	7190015	1007.5	190
48	7191108	1007.7	200
48	7192201	1007.9	210
48	7193340	1008.1	220
48	7194437	1008.3	230
48	7195532	1008.5	240
48	7196629	1008.7	250
48	7197395	1008.9	260
48	7198195	1009.1	270
48	7198939	1009.3	280
48	7199692	1009.5	290
48	7202700	1011.5	290
48	7203489	1012.675	320
48	7203503	1012.675	320
48	7203507	1012.675	320
48	7203507	1012.675	330
48	7203507	1012.675	340
48	7203507	1012.675	350
48	7203507	1012.675	360
48	7203507	1012.675	370
48	7203507	1012.675	380
48	7203507	1012.675	390
48	7203507	1012.675	400
48	7203507	1012.675	410
48	7203507	1012.675	420
48	7203507	1012.675	430
48	7203507	1012.675	440
48	7219064	1015.289	450
48	7220520	1015.629	460
48	7220520	1015.629	470
48	7220520	1015.629	480
48	7226912	1015.968	490
48	7226912	1015.968	500
48	7226912	1015.968	510
48	7226912	1015.968	520
48	7231759	1016.308	530
48	7231759	1016.308	540
48	7231759	1016.308	550
48	7231759	1016.308	560
48	7236146	1016.647	570
48	7236146	1016.647	580
48	7236146	1016.647	590
48	7239987	1016.985	600
48	7239987	1016.985	610
48	7239987	1016.985	620
48	7239987	1016.985	630
48	7239987	1016.985	640
48	7239987	1016.985	650
48	7239987	1016.985	660
48	7243281	1017.1	670
48	7246603	1017.3	680
48	7248469	1017.5	680
48	7248480	1017.5	690
48	7250278	1017.7	700
48	7252113	1017.9	710
48	7253809	1018.1	720
48	7255708	1018.3	730
48	7257688	1018.5	740
48	7259604	1018.7	750
48	7261428	1018.9	760
48	7263420	1019.1	770
48	7265346	1019.3	780
48	7268402	1019.5	790
48	7272141	1019.7	800
48	7274119	1019.9	810
50	6997077	988.861	330
50	6998894	989.192	330
50	7001459	989.523	330
50	7003549	989.853	330
50	7006899	990.183	330
50	7011094	990.519	330
50	7014143	990.848	330
50	7017610	991.183	330
50	7020066	991.512	330
50	7023049	991.845	330
50	7036620	992.195	330
50	7048300	992.525	330
50	7053711	992.854	330
50	7056992	993.185	340
50	7056992	993.185	350
50	7056992	993.185	360
50	7060950	993.514	370
50	7063869	993.844	380
50	7067161	994.7	380
50	7079132	999.36	10
50	7081601	999.721	20
50	7081601	999.721	30
50	7085247	1000.082	40
50	7092558	1000.442	50
50	7098417	1000.7	50
50	7099699	1000.802	10
50	7101749	1001.161	20
50	7107285	1001.523	30
50	7107285	1001.523	40
50	7107285	1001.523	50
50	7107285	1001.523	60
50	7107285	1001.523	70
50	7107285	1001.523	80
50	7111523	1001.883	90
50	7111523	1001.883	100
50	7111523	1001.883	110
50	7111523	1001.883	120
50	7111523	1001.883	130
50	7111523	1001.883	140
50	7111523	1001.883	150
50	7111523	1001.883	160
50	7111523	1001.883	170
50	7111523	1001.883	180
50	7111523	1001.883	190
50	7111523	1001.883	200
50	7111523	1001.883	210
50	7111523	1001.883	220
50	7111523	1001.883	230
50	7111523	1001.883	240
50	7111523	1001.883	250
50	7111523	1001.883	260
50	7111523	1001.883	270
50	7111523	1001.883	280
50	7111523	1001.883	290
50	7111523	1001.883	300
50	7111523	1001.883	310
50	7111523	1001.883	320
50	7111523	1001.883	330
50	7111523	1001.883	340
50	7111523	1001.883	350
50	7111523	1001.883	360
50	7111523	1001.883	370
50	7111523	1001.883	380
50	7111523	1001.883	390
50	7111523	1001.883	400
50	7111523	1001.883	410
50	7111523	1001.883	420
50	7111523	1001.883	430
50	7111523	1001.883	440
50	7111523	1001.883	450
50	7111523	1001.883	460
50	7111523	1001.883	470
50	7111523	1001.883	480
50	7111523	1001.883	490
50	7111523	1001.883	500
50	7111523	1001.883	510
50	7111523	1001.883	520
50	7111523	1001.883	530
50	7134629	1002.246	540
50	7134629	1002.246	550
50	7134629	1002.246	560
50	7134629	1002.246	570
50	7134629	1002.246	580
50	7134629	1002.246	590
50	7134629	1002.246	600
50	7143867	1002.606	610
50	7143867	1002.606	620
50	7143867	1002.606	630
50	7143867	1002.606	640
50	7143867	1002.606	650
50	7143867	1002.606	660
50	7150209	1002.97	670
50	7150209	1002.97	680
50	7150209	1002.97	690
50	7150209	1002.97	700
50	7150209	1002.97	710
50	7150209	1002.97	720
50	7150209	1002.97	730
50	7150209	1002.97	740
50	7150209	1002.97	750
50	7150209	1002.97	760
50	7150209	1002.97	770
50	7150209	1002.97	780
50	7150209	1002.97	790
50	7150209	1002.97	800
50	7150209	1002.97	810
50	7150209	1002.97	820
50	7158273	1003.331	830
50	7158273	1003.331	840
50	7158273	1003.331	850
50	7158273	1003.331	860
50	7162280	1003.5	870
50	7170000	1004.062	880
50	7170000	1004.062	890
50	7170430	1004.1	900
50	7172199	1004.3	910
50	7173386	1004.5	920
50	7174482	1004.7	930
50	7175579	1004.9	940
50	7176716	1005.1	950
50	7177815	1005.3	960
50	7178910	1005.5	970
50	7180018	1005.7	980
50	7181109	1005.9	990
50	7181964	1006.1	1000
50	7183029	1006.3	1010
50	7184458	1006.5	1020
50	7185547	1006.7	1020
50	7185560	1006.7	1030
50	7188174	1007.259	160
50	7188174	1007.259	170
50	7188570	1007.3	180
50	7190016	1007.5	190
50	7191109	1007.7	200
50	7192202	1007.9	210
50	7193341	1008.1	220
50	7194438	1008.3	230
50	7195533	1008.5	240
50	7196630	1008.7	250
50	7197396	1008.9	260
50	7198196	1009.1	270
50	7198940	1009.3	280
50	7199693	1009.5	290
50	7201469	1011.1	300
50	7201469	1011.1	310
50	7201469	1011.1	320
50	7204948	1012.7	180
50	7209571	1013.868	320
50	7210536	1014.055	320
50	7211294	1014.242	320
50	7212235	1014.435	330
50	7212235	1014.435	340
50	7212235	1014.435	350
50	7212235	1014.435	360
50	7212235	1014.435	370
50	7212235	1014.435	380
50	7212235	1014.435	390
50	7212235	1014.435	400
50	7215422	1014.622	410
50	7215422	1014.622	420
50	7215422	1014.622	430
50	7215422	1014.622	440
50	7219560	1015.362	450
50	7221409	1015.7	460
50	7221409	1015.7	470
50	7221409	1015.7	480
50	7221409	1015.7	490
50	7221409	1015.7	500
50	7221409	1015.7	510
50	7221409	1015.7	520
50	7221409	1015.7	530
50	7221409	1015.7	540
50	7224920	1015.888	550
50	7224920	1015.888	560
50	7224920	1015.888	570
50	7224920	1015.888	580
50	7224920	1015.888	590
50	7224920	1015.888	600
50	7225880	1015.9	610
50	7229825	1016.1	620
50	7231538	1016.3	630
50	7234866	1016.5	640
50	7237320	1016.7	650
50	7239308	1016.9	660
50	7243282	1017.1	670
50	7246604	1017.3	680
50	7248481	1017.5	690
50	7250279	1017.7	700
50	7253625	1018.088	710
50	7253810	1018.1	720
50	7255709	1018.3	730
50	7257689	1018.5	740
50	7259593	1018.7	740
50	7259605	1018.7	750
50	7261429	1018.9	760
50	7263421	1019.1	770
50	7265347	1019.3	780
50	7268403	1019.5	790
50	7272142	1019.7	800
50	7274120	1019.9	810
51	7207926	1013.182	320
51	7208077	1013.302	320
51	7208230	1013.417	320
51	7208367	1013.534	330
51	7208669	1013.653	340
51	7209189	1013.773	350
51	7209635	1013.892	360
51	7210276	1014.01	370
51	7210799	1014.135	380
51	7211320	1014.252	390
51	7211891	1014.372	400
51	7213518	1014.492	410
51	7215280	1014.609	420
51	7216952	1014.726	430
51	7217995	1014.845	440
51	7219314	1015.321	450
51	7220942	1015.658	460
51	7223307	1015.779	470
51	7223307	1015.779	480
51	7227878	1016.002	490
51	7227878	1016.002	500
51	7227878	1016.002	510
51	7227878	1016.002	520
51	7232495	1016.336	530
51	7232495	1016.336	540
51	7232495	1016.336	550
51	7232495	1016.336	560
51	7236684	1016.678	570
51	7236684	1016.678	580
51	7236684	1016.678	590
51	7241088	1017.013	600
51	7241088	1017.013	610
51	7241088	1017.013	620
51	7241088	1017.013	630
51	7241088	1017.013	640
51	7241088	1017.013	650
51	7241088	1017.013	660
51	7243283	1017.1	670
51	7246605	1017.3	680
51	7248482	1017.5	690
51	7250280	1017.7	700
51	7252115	1017.9	710
51	7253811	1018.1	720
51	7255710	1018.3	730
51	7257690	1018.5	740
51	7259606	1018.7	750
51	7261430	1018.9	760
51	7263409	1019.1	760
51	7263422	1019.1	770
51	7265348	1019.3	780
51	7268404	1019.5	790
51	7272143	1019.7	800
52	7219049	1015.268	320
52	7220494	1015.606	320
52	7226630	1015.946	320
52	7231376	1016.284	330
52	7235915	1016.626	340
52	7239769	1016.97	350
52	7247060	1017.31	360
52	7249929	1017.649	370
52	7252930	1017.992	380
52	7256331	1018.332	390
52	7259337	1018.672	400
52	7262786	1019.016	410
52	7266180	1019.357	420
52	7272002	1019.699	430
53	7219925	1015.452	320
53	7222786	1015.739	320
53	7229123	1016.026	320
53	7232284	1016.314	330
53	7235757	1016.604	340
53	7239098	1016.891	350
53	7245197	1017.18	360
53	7248242	1017.467	370
53	7251080	1017.755	380
53	7253321	1018.044	390
53	7256329	1018.332	400
53	7258908	1018.619	410
53	7261898	1018.909	420
53	7264545	1019.196	430
53	7267139	1019.489	440
53	7267139	1019.489	450
53	7267139	1019.489	460
53	7267139	1019.489	470
53	7267139	1019.489	480
53	7267139	1019.489	490
53	7267139	1019.489	500
53	7267139	1019.489	510
53	7267139	1019.489	520
53	7267139	1019.489	530
53	7273121	1019.778	540

