version 2
run FastSMR-2-20181114-02:21:51-5520
attr configname FastSMR
attr datetime 20181114-02:21:51
attr experiment FastSMR
attr inifile omnetpp.ini
attr iterationvars "$GCCycleForLatency=3000, $GC=true"
attr iterationvarsf GCCycleForLatency=3000,GC=true-
attr measurement "$GCCycleForLatency=3000, $GC=true"
attr network abstract.FastSMRModel
attr processid 5520
attr repetition 0
attr replication #0
attr resultdir results
attr runnumber 2
attr seedset 2
itervar GC true
itervar GCCycleForLatency 3000
param FastSMRModel.client_num 10
param FastSMRModel.logical_computer "\"client[0]\""
param **.globalParameters.max_distance 20000000m
param **.globalParameters.fix_latency 100ms
param **.globalParameters.latency_gen_mode 0
param **.globalStatistics.cool_down 10s
param **.underlayConfigurator.lcType "\"abstract.LogicComputer\""
param **.underlayConfigurator.lcName "\"logicComputer\""
param **.underlayConfigurator.nodeType "\"hosts.Node\""
param **.underlayConfigurator.nodeName "\"node\""
param **.underlayConfigurator.clientType "\"hosts.Client\""
param **.underlayConfigurator.clientName "\"client\""
param **.client[*].ctrl.initJoinTime 3000ms
param **.client[*].ctrl.loadCycle 500ms
param **.client[*].ctrl.discoveryCycle 1000ms
param **.client[*].ctrl.deviate false
param **.node[*].IPInterface "\"IPAddress\""
param **.node[*].HBcycle 1000ms
param **.node[*].ctrl.roundCycle 200ms
param **.node[*].ctrl.cycleStart 4000ms
param **.node[*].ctrl.GCCycle 3000ms
param **.node[*].ctrl.GC true
param **.rendezvous.ctrl.cycle 1000ms
param **.rendezvous.ctrl.starttime 5000ms
param **.rendezvous.replicaNumPolicyModule "\"replication\""
param **.rendezvous.replication.threshold 3
param **.rendezvous.replication.max_replica 5
param **.clock.err_mean 74ms
param **.clock.err_std 175ms
param **.pktLossRate 0.01
param **.Copt 200000000mps
param **.BW 1.04858e6bps
param **.MTU 12144b
param **.jitter_mu 1
param **.jitter_sigma 0.5
param **.Dmin 50ms
param **.jitter 50ms
param **.churnGeneratorModule "\"churnGenerator\""
param **.churnGenerator.stable_fraction 0.2
param **.churnGenerator.stable_mean 9000000ms
param **.churnGenerator.sessionLenShape 0.38
param **.churnGenerator.sessionLenScale 42.4
param **.churnGenerator.sessionLenMin 10s
param **.churnGenerator.sessionLength 30min
param **.churnGenerator.scan_cycle 100ms
param **.churnGenerator.life_span_min 10s
param **.churnGenerator.life_span_max 200s
param **.coordinator.locXMax 750
param **.coordinator.locYMax 550
param **.coordinator.locXMin 200
param **.coordinator.locYMin 50
param **.coordinator.LCXMax 1050
param **.coordinator.LCYMax 550
param **.coordinator.LCXMin 850
param **.coordinator.LCYMin 50
param **.coordinator.percept_radius 1000

vector 0 FastSMRModel.client[7] IndividualInteractionLatency:vector ETV
attr source latency
attr title "Individual Interaction Latency, vector"
vector 1 FastSMRModel.logicComputer[0].node[0] QdLengthVector:vector ETV
attr source QdLength
attr title "Qd Length, vector"
vector 2 FastSMRModel.logicComputer[0].node[1] QdLengthVector:vector ETV
attr source QdLength
attr title "Qd Length, vector"
vector 3 FastSMRModel.client[5] IndividualInteractionLatency:vector ETV
attr source latency
attr title "Individual Interaction Latency, vector"
vector 4 FastSMRModel.client[0] IndividualInteractionLatency:vector ETV
attr source latency
attr title "Individual Interaction Latency, vector"
vector 5 FastSMRModel.client[2] IndividualInteractionLatency:vector ETV
attr source latency
attr title "Individual Interaction Latency, vector"
vector 6 FastSMRModel.client[6] IndividualInteractionLatency:vector ETV
attr source latency
attr title "Individual Interaction Latency, vector"
vector 7 FastSMRModel.client[9] IndividualInteractionLatency:vector ETV
attr source latency
attr title "Individual Interaction Latency, vector"
vector 8 FastSMRModel.client[3] IndividualInteractionLatency:vector ETV
attr source latency
attr title "Individual Interaction Latency, vector"
vector 9 FastSMRModel.client[4] IndividualInteractionLatency:vector ETV
attr source latency
attr title "Individual Interaction Latency, vector"
vector 10 FastSMRModel.client[8] IndividualInteractionLatency:vector ETV
attr source latency
attr title "Individual Interaction Latency, vector"
vector 11 FastSMRModel.client[1] IndividualInteractionLatency:vector ETV
attr source latency
attr title "Individual Interaction Latency, vector"
vector 12 FastSMRModel.logicComputer[0].node[3] QdLengthVector:vector ETV
attr source QdLength
attr title "Qd Length, vector"
vector 13 FastSMRModel.logicComputer[0].node[4] QdLengthVector:vector ETV
attr source QdLength
attr title "Qd Length, vector"
vector 14 FastSMRModel.logicComputer[0].node[2] QdLengthVector:vector ETV
attr source QdLength
attr title "Qd Length, vector"
12	6699	10.319	20
12	10682	10.737	30
12	10682	10.737	40
12	10682	10.737	50
12	10682	10.737	60
12	12625	10.9	70
12	14742	11.1	80
12	16527	11.3	90
12	18025	11.5	90
12	18041	11.5	100
12	19751	11.7	110
12	21873	11.9	40
12	23824	12.1	50
12	25077	12.3	60
12	26225	12.5	70
12	28575	12.7	80
12	31005	12.9	90
12	32836	13.1	100
12	34386	13.3	110
12	35701	13.5	120
12	38117	13.7	130
12	40028	13.9	140
12	41855	14.1	150
12	43106	14.3	160
12	43782	14.5	160
12	43797	14.5	170
12	46225	14.7	170
12	47971	14.9	50
12	50248	15.1	60
12	52557	15.3	70
12	54038	15.5	80
12	56295	15.7	90
12	58200	15.9	100
12	60033	16.1	110
12	61820	16.3	120
12	63599	16.5	130
12	65392	16.7	140
12	67171	16.9	150
12	71432	17.5	150
12	71838	17.519	160
12	71838	17.519	170
12	71838	17.519	180
12	73080	17.7	190
12	75642	17.9	50
12	77948	18.1	60
12	79900	18.3	70
12	81697	18.5	80
12	83482	18.7	90
12	85092	18.9	100
12	87088	19.1	110
12	88883	19.3	120
12	90375	19.5	130
12	92128	19.7	140
12	94186	19.9	150
12	95962	20.1	160
12	97919	20.3	170
12	99695	20.5	170
12	103435	20.924	10
12	103435	20.924	20
12	103435	20.924	30
12	105002	21.1	40
12	106988	21.3	50
12	112314	21.921	60
12	112314	21.921	70
12	112314	21.921	80
12	113758	22.1	90
12	115437	22.3	100
12	117197	22.5	110
12	118725	22.7	120
12	120444	22.9	130
12	121752	23.1	140
12	124284	23.3	150
12	126885	23.5	150
12	126902	23.5	160
12	132476	24.123	20
12	132476	24.123	30
12	132476	24.123	40
12	133997	24.3	50
12	139515	24.919	60
12	139515	24.919	70
12	139515	24.919	80
12	141080	25.1	90
12	143232	25.3	100
12	145026	25.5	110
12	146630	25.7	120
12	148255	25.9	130
12	150439	26.1	140
12	152238	26.3	150
12	154009	26.5	150
12	154024	26.5	160
12	155884	26.7	170
12	161396	27.326	30
12	161396	27.326	40
12	161396	27.326	50
12	162914	27.5	60
12	164898	27.7	70
12	166687	27.9	80
12	168512	28.1	90
12	173964	28.719	100
12	173964	28.719	110
12	173964	28.719	120
12	179396	29.319	130
12	179396	29.319	140
12	179396	29.319	150
12	180938	29.5	150
12	180953	29.5	160
12	186590	30.12	20
12	186590	30.12	30
12	186590	30.12	40
12	188074	30.3	50
12	190233	30.5	60
12	192030	30.7	70
12	193815	30.9	80
12	195652	31.1	90
12	197437	31.3	100
12	199224	31.5	110
12	201007	31.7	120
12	202496	31.9	130
12	204299	32.1	140
12	206420	32.3	150
12	208020	32.5	150
12	208035	32.5	160
12	210061	32.7	170
12	211864	32.9	30
12	213691	33.1	40
12	215161	33.3	50
12	217173	33.5	60
12	219070	33.7	70
12	220851	33.9	80
12	222369	34.1	90
12	224391	34.3	100
12	226262	34.5	110
12	231565	35.124	120
12	231565	35.124	130
12	231565	35.124	140
12	233291	35.3	150
12	235275	35.5	150
12	235290	35.5	160
12	237145	35.7	170
12	238936	35.9	30
12	240765	36.1	40
12	242393	36.3	50
12	244018	36.5	60
12	246012	36.7	70
12	247927	36.9	80
12	249748	37.1	90
12	251549	37.3	100
12	253328	37.5	110
12	255119	37.7	120
12	256896	37.9	130
12	258729	38.1	140
12	260518	38.3	150
12	262138	38.5	150
12	262154	38.5	160
12	263850	38.7	170
12	265860	38.9	30
12	271468	39.528	40
12	271468	39.528	50
12	271468	39.528	60
12	272981	39.7	70
12	274724	39.9	80
12	276252	40.1	90
12	278503	40.3	100
12	280259	40.5	110
12	285770	41.119	120
12	285770	41.119	130
12	285770	41.119	140
12	287194	41.3	150
12	288857	41.5	150
12	288872	41.5	160
12	291197	41.7	170
12	293110	41.9	50
12	294937	42.1	60
12	296571	42.3	70
12	298523	42.5	80
12	300302	42.7	90
12	305795	43.321	100
12	305795	43.321	110
12	305795	43.321	120
12	307326	43.5	130
12	309323	43.7	140
12	311106	43.9	150
12	312943	44.1	160
12	314714	44.3	170
12	316491	44.5	170
12	316506	44.5	180
12	318363	44.7	190
12	320158	44.9	30
12	321983	45.1	40
12	323764	45.3	50
12	325549	45.5	60
12	327338	45.7	70
12	329125	45.9	80
12	336047	46.74	90
12	336047	46.74	100
12	336047	46.74	110
12	336047	46.74	120
12	337701	46.9	130
12	339826	47.1	140
12	341648	47.3	150
12	343579	47.5	150
12	343594	47.5	160
12	345455	47.7	170
12	347246	47.9	30
12	348898	48.1	40
12	350676	48.3	50
12	352643	48.5	60
12	354454	48.7	70
12	359845	49.325	80
12	359845	49.325	90
12	359845	49.325	100
12	361170	49.5	110
12	366983	50.12	120
12	366983	50.12	130
12	366983	50.12	140
12	368733	50.3	150
12	370713	50.5	150
12	370728	50.5	160
12	372583	50.7	170
12	374370	50.9	30
12	379670	51.519	40
12	383293	51.946	50
12	383293	51.946	60
12	383293	51.946	70
12	383293	51.946	80
12	388936	52.523	90
12	388936	52.523	100
12	388936	52.523	110
12	390470	52.7	120
12	392289	52.9	130
12	397126	53.5	130
12	397779	53.518	140
12	397779	53.518	150
12	397779	53.518	160
12	399566	53.7	170
12	401556	53.9	50
12	403393	54.1	60
12	404861	54.3	70
12	406859	54.5	80
12	408762	54.7	90
12	410543	54.9	100
12	412139	55.1	110
12	413611	55.3	120
12	415872	55.5	130
12	421182	56.12	140
12	421182	56.12	150
12	421182	56.12	160
12	422813	56.3	170
12	424807	56.5	170
12	424822	56.5	180
12	426863	56.7	170
12	428447	56.9	30
12	429644	57.1	40
12	432120	57.3	50
12	434139	57.5	60
12	435930	57.7	70
12	437711	57.9	80
12	442776	58.519	90
12	446566	58.938	100
12	446566	58.938	110
12	446566	58.938	120
12	446566	58.938	130
12	448307	59.1	140
12	450067	59.3	150
12	452063	59.5	150
12	452078	59.5	160
12	454035	59.7	170
12	455827	59.9	30
12	460876	60.522	40
12	460876	60.522	50
12	460876	60.522	60
12	462723	60.7	70
12	464834	60.9	80
12	466507	61.1	90
12	468455	61.3	100
12	470081	61.5	110
12	472029	61.7	120
12	473832	61.9	130
12	475193	62.1	140
12	477151	62.3	150
12	478703	62.5	150
12	478718	62.5	160
12	480798	62.7	170
12	482386	62.9	50
12	488458	63.52	60
12	488458	63.52	70
12	488458	63.52	80
12	493942	64.128	90
12	493942	64.128	100
12	493942	64.128	110
12	495460	64.3	120
12	497452	64.5	130
12	499227	64.7	140
12	500694	64.9	150
12	502849	65.1	160
12	504660	65.3	170
12	506433	65.5	170
12	506448	65.5	180
12	508299	65.7	190
12	510082	65.9	30
12	511919	66.1	40
12	513704	66.3	50
12	515330	66.5	60
12	517280	66.7	70
12	519063	66.9	80
12	520723	67.1	90
12	522673	67.3	100
12	524482	67.5	110
12	526261	67.7	120
12	528054	67.9	130
12	529881	68.1	140
12	531664	68.3	150
12	533435	68.5	150
12	537068	68.924	10
12	537068	68.924	20
12	537068	68.924	30
12	538597	69.1	40
12	540753	69.3	50
12	542547	69.5	60
12	544328	69.7	70
12	549794	70.32	80
12	549794	70.32	90
12	549794	70.32	100
12	551329	70.5	110
12	553319	70.7	120
12	556657	71.32	130
12	558710	71.5	130
12	560785	71.743	10
12	562499	71.967	20
12	565636	72.387	30
12	565636	72.387	40
12	565636	72.387	50
12	565636	72.387	60
12	565636	72.387	70
2	5424	10.1	30
2	6379	10.3	40
2	7460	10.5	50
2	9888	10.7	60
2	12623	10.9	70
2	14740	11.1	80
2	16525	11.3	90
2	18023	11.5	90
2	18039	11.5	100
2	19749	11.7	30
2	21871	11.9	40
2	27590	12.587	50
2	27590	12.587	60
2	27590	12.587	70
2	28573	12.7	80
2	31003	12.9	90
2	32834	13.1	100
2	34384	13.3	110
2	35699	13.5	120
2	38115	13.7	130
2	40026	13.9	140
2	43780	14.5	140
2	45180	14.581	150
2	45180	14.581	160
2	49477	15.018	30
2	49477	15.018	40
2	49477	15.018	50
2	50246	15.1	60
2	52555	15.3	70
2	54036	15.5	80
2	56293	15.7	90
2	58198	15.9	100
2	60031	16.1	110
2	61818	16.3	120
2	63597	16.5	130
2	65390	16.7	140
2	67169	16.9	150
2	68990	17.1	160
2	71430	17.5	160
2	74645	17.786	20
2	74645	17.786	30
2	74645	17.786	40
2	77734	18.087	50
2	77946	18.1	60
2	79898	18.3	70
2	81695	18.5	80
2	84862	18.881	90
2	85090	18.9	100
2	87086	19.1	110
2	91160	19.542	120
2	92839	19.724	130
2	92839	19.724	140
2	94184	19.9	150
2	95960	20.1	160
2	97917	20.3	170
2	99693	20.5	170
2	99708	20.5	180
2	101283	20.7	20
2	102758	20.9	30
2	105000	21.1	40
2	106986	21.3	50
2	108773	21.5	60
2	110283	21.7	70
2	111749	21.9	80
2	113756	22.1	90
2	115435	22.3	100
2	117195	22.5	110
2	118723	22.7	120
2	120442	22.9	130
2	121750	23.1	140
2	124282	23.3	150
2	126883	23.5	150
2	126900	23.5	160
2	128745	23.7	20
2	130121	23.9	30
2	131796	24.1	40
2	133995	24.3	50
2	135670	24.5	60
2	137429	24.7	70
2	138981	24.9	80
2	141078	25.1	90
2	143230	25.3	100
2	146398	25.682	110
2	148061	25.885	120
2	148253	25.9	130
2	150437	26.1	140
2	152236	26.3	150
2	154007	26.5	150
2	154022	26.5	160
2	155882	26.7	20
2	157357	26.9	30
2	159121	27.1	40
2	160718	27.3	50
2	162912	27.5	60
2	164896	27.7	70
2	166685	27.9	80
2	168510	28.1	90
2	169827	28.3	100
2	171734	28.5	110
2	173305	28.7	120
2	175505	28.9	130
2	177263	29.1	140
2	178747	29.3	150
2	180936	29.5	150
2	180951	29.5	160
2	183013	29.7	20
2	184531	29.9	30
2	187878	30.283	40
2	188072	30.3	50
2	190231	30.5	60
2	192028	30.7	70
2	193813	30.9	80
2	195650	31.1	90
2	197435	31.3	100
2	199222	31.5	110
2	203564	31.984	120
2	203564	31.984	130
2	204297	32.1	140
2	207800	32.484	150
2	208018	32.5	150
2	208033	32.5	160
2	210059	32.7	20
2	211862	32.9	30
2	213689	33.1	40
2	215159	33.3	50
2	217171	33.5	60
2	219068	33.7	70
2	220849	33.9	80
2	222367	34.1	90
2	224389	34.3	100
2	226260	34.5	110
2	227896	34.7	120
2	229560	34.9	130
2	230932	35.1	140
2	233289	35.3	150
2	235273	35.5	150
2	235288	35.5	160
2	237143	35.7	20
2	238934	35.9	30
2	240763	36.1	40
2	242391	36.3	50
2	244016	36.5	60
2	246010	36.7	70
2	247925	36.9	80
2	249746	37.1	90
2	251547	37.3	100
2	253326	37.5	110
2	255117	37.7	120
2	256894	37.9	130
2	258727	38.1	140
2	260516	38.3	150
2	262136	38.5	150
2	262152	38.5	160
2	263848	38.7	20
2	265858	38.9	30
2	267799	39.1	40
2	269310	39.3	50
2	270781	39.5	60
2	272979	39.7	70
2	274722	39.9	80
2	276250	40.1	90
2	278501	40.3	100
2	280257	40.5	110
2	282199	40.7	120
2	283710	40.9	130
2	285227	41.1	140
2	287192	41.3	150
2	288855	41.5	150
2	288870	41.5	160
2	291195	41.7	40
2	293108	41.9	50
2	294935	42.1	60
2	296569	42.3	70
2	298521	42.5	80
2	300300	42.7	90
2	301764	42.9	100
2	303556	43.1	110
2	305127	43.3	120
2	307324	43.5	130
2	309321	43.7	140
2	311104	43.9	150
2	312941	44.1	160
2	314712	44.3	170
2	316489	44.5	170
2	316504	44.5	180
2	318361	44.7	20
2	320156	44.9	30
2	321981	45.1	40
2	323762	45.3	50
2	325547	45.5	60
2	327336	45.7	70
2	329123	45.9	80
2	330631	46.1	90
2	332132	46.3	100
2	333383	46.5	110
2	337353	46.885	120
2	337699	46.9	130
2	339824	47.1	140
2	341646	47.3	150
2	343577	47.5	150
2	343592	47.5	160
2	345453	47.7	20
2	348754	48.095	30
2	350416	48.281	40
2	350674	48.3	50
2	352641	48.5	60
2	354452	48.7	70
2	357339	49.082	80
2	357506	49.1	90
2	359265	49.3	100
2	361168	49.5	110
2	363395	49.7	120
2	365001	49.9	130
2	366364	50.1	140
2	368731	50.3	150
2	370711	50.5	150
2	370726	50.5	160
2	372581	50.7	20
2	374368	50.9	30
2	376193	51.1	40
2	378814	51.485	50
2	379006	51.5	60
2	380882	51.7	70
2	382469	51.9	80
2	384934	52.1	90
2	386763	52.3	100
2	388260	52.5	110
2	392053	52.882	120
2	392287	52.9	130
2	394289	53.1	140
2	395814	53.3	150
2	397124	53.5	150
2	397139	53.5	160
2	399564	53.7	40
2	401554	53.9	50
2	403391	54.1	60
2	404859	54.3	70
2	406857	54.5	80
2	408760	54.7	90
2	410541	54.9	100
2	412137	55.1	110
2	413609	55.3	120
2	415870	55.5	130
2	417777	55.7	140
2	420434	56.083	150
2	422617	56.281	160
2	424582	56.484	170
2	424805	56.5	170
2	424820	56.5	180
2	426861	56.7	20
2	428445	56.9	30
2	429642	57.1	40
2	432118	57.3	50
2	434137	57.5	60
2	435928	57.7	70
2	437709	57.9	80
2	439227	58.1	90
2	440939	58.3	100
2	442301	58.5	110
2	443690	58.7	120
2	445727	58.9	130
2	448305	59.1	140
2	450065	59.3	150
2	452061	59.5	150
2	452076	59.5	160
2	454033	59.7	20
2	455825	59.9	30
2	457651	60.1	40
2	459164	60.3	50
2	460326	60.5	60
2	462721	60.7	70
2	466271	61.083	80
2	466505	61.1	90
2	469851	61.482	100
2	470079	61.5	110
2	472027	61.7	120
2	473830	61.9	130
2	475191	62.1	140
2	477149	62.3	150
2	478701	62.5	150
2	478716	62.5	160
2	480796	62.7	40
2	482384	62.9	50
2	484627	63.1	60
2	486325	63.3	70
2	487792	63.5	80
2	489995	63.7	90
2	491720	63.9	100
2	493243	64.1	110
2	495458	64.3	120
2	497450	64.5	130
2	500540	64.891	140
2	500692	64.9	150
2	502847	65.1	160
2	504658	65.3	170
2	506431	65.5	170
2	506446	65.5	180
2	508297	65.7	20
2	510080	65.9	30
2	511917	66.1	40
2	513702	66.3	50
2	515328	66.5	60
2	517278	66.7	70
2	520487	67.081	80
2	520721	67.1	90
2	522671	67.3	100
2	524480	67.5	110
2	526259	67.7	120
2	528052	67.9	130
2	529879	68.1	140
2	531662	68.3	150
2	533433	68.5	150
2	533448	68.5	160
2	534872	68.7	20
2	536510	68.9	30
2	538595	69.1	40
2	540751	69.3	50
2	542545	69.5	60
2	544326	69.7	70
2	546113	69.9	80
2	547664	70.1	90
2	549137	70.3	100
2	551327	70.5	110
2	553317	70.7	120
2	554556	70.9	130
2	555470	71.1	140
2	556296	71.3	150
2	558708	71.5	150
2	558723	71.5	160
2	560326	71.7	40
2	562914	72.082	50
2	563102	72.1	60
2	564731	72.3	70
2	567340	72.5	80
2	570781	72.7	90
2	573890	73.083	100
2	574082	73.1	110
2	575673	73.3	120
2	577140	73.5	130
2	578586	73.7	140
2	580028	73.9	150
2	581506	74.1	160
2	582948	74.3	170
2	584376	74.5	170
2	584390	74.5	180
2	585876	74.7	20
2	587314	74.9	30
2	588800	75.1	40
2	589923	75.3	50
2	591364	75.5	60
2	593494	75.882	70
2	593819	75.9	80
2	596139	76.1	90
2	597365	76.3	100
2	600017	76.687	110
2	600205	76.7	120
2	603134	77.083	130
2	603326	77.1	140
2	604931	77.3	150
2	606375	77.5	150
2	606389	77.5	160
2	607873	77.7	20
2	609317	77.9	30
2	610807	78.1	40
2	612233	78.3	50
2	613681	78.5	60
2	615123	78.7	70
2	616404	78.9	80
2	618051	79.1	90
2	618980	79.3	100
2	620751	79.5	110
2	622405	79.7	120
2	623853	79.9	130
2	625333	80.1	140
2	626535	80.3	150
2	628140	80.5	150
2	628154	80.5	160
2	629734	80.7	20
2	630655	80.9	30
2	632160	81.1	40
2	633887	81.3	50
2	635610	81.5	60
2	637044	81.7	70
2	637929	81.9	80
2	639672	82.1	90
2	642224	82.486	100
2	642397	82.5	110
2	644232	82.7	120
2	645792	82.9	130
2	648357	83.282	140
2	648543	83.3	150
2	650136	83.5	150
2	650150	83.5	160
2	651652	83.7	20
2	653096	83.9	30
2	654588	84.1	40
2	657117	84.488	50
2	657295	84.5	60
2	658890	84.7	70
2	660191	84.9	80
2	661844	85.1	90
2	663286	85.3	100
2	664173	85.5	110
2	665896	85.7	120
2	667646	85.9	130
2	668815	86.1	140
2	670466	86.3	150
2	671705	86.5	150
2	671719	86.5	160
2	673444	86.7	30
2	674974	86.9	40
2	676466	87.1	50
2	677898	87.3	60
2	681320	87.834	70
2	681320	87.834	80
2	681776	87.9	90
2	684893	88.291	100
2	685045	88.3	110
2	686652	88.5	120
2	688102	88.7	130
2	689310	88.9	140
2	690959	89.1	150
2	692505	89.3	160
2	693939	89.5	160
2	693953	89.5	170
2	695431	89.7	20
2	696877	89.9	30
2	698355	90.1	40
2	699642	90.3	50
2	701255	90.5	60
2	703764	90.883	70
2	703956	90.9	80
2	705292	91.1	90
2	706963	91.3	100
2	708515	91.5	110
2	709719	91.7	120
2	711186	91.9	130
2	712936	92.1	140
2	714380	92.3	150
2	715806	92.5	150
2	715820	92.5	160
2	717153	92.7	20
2	718752	92.9	30
2	721132	93.281	40
2	721324	93.3	50
2	722910	93.5	60
2	724391	93.7	70
2	727216	94.083	80
2	728655	94.282	90
2	728845	94.3	100
2	731568	94.686	110
2	732989	94.881	120
2	733183	94.9	130
2	734623	95.1	140
2	735940	95.3	150
2	737441	95.5	150
2	737455	95.5	160
2	738934	95.7	30
2	741934	96.083	40
2	742126	96.1	50
2	743729	96.3	60
2	745191	96.5	70
2	746619	96.7	80
2	747831	96.9	90
2	749484	97.1	100
2	750509	97.3	110
2	752280	97.5	120
2	753942	97.7	130
2	755376	97.9	140
2	756864	98.1	150
2	758151	98.3	160
2	759734	98.5	160
2	759748	98.5	170
2	760402	98.7	20
2	761935	98.9	30
2	764048	99.1	40
2	765661	99.3	50
2	767095	99.5	60
2	768537	99.7	70
2	769973	99.9	80
2	771144	100.1	90
2	772791	100.3	100
2	774202	100.5	110
2	775799	100.7	120
2	777249	100.9	130
2	778731	101.1	140
2	780173	101.3	150
2	781288	101.5	150
2	781302	101.5	160
2	783017	101.7	30
2	785676	102.082	40
2	785870	102.1	50
2	787473	102.3	60
2	788927	102.5	70
2	790369	102.7	80
2	791809	102.9	90
2	794049	103.282	100
2	794305	103.3	110
2	796193	103.5	120
2	797653	103.7	130
2	799097	103.9	140
2	800585	104.1	150
2	802021	104.3	160
2	803453	104.5	160
2	803467	104.5	170
2	804949	104.7	20
2	806387	104.9	30
2	807869	105.1	40
2	809313	105.3	50
2	810511	105.5	60
2	812126	105.7	70
2	813662	105.9	80
2	814914	106.1	90
2	816521	106.3	100
2	817823	106.5	110
2	819432	106.7	120
2	820974	106.9	130
2	822313	107.1	140
2	823910	107.3	150
2	825340	107.5	150
2	825354	107.5	160
2	827917	107.883	20
2	828109	107.9	30
2	829754	108.1	40
2	830893	108.3	50
2	832552	108.5	60
2	834104	108.7	70
2	835556	108.9	80
2	837032	109.1	90
2	838478	109.3	100
2	839922	109.5	110
2	841197	109.7	120
2	842808	109.9	130
2	845375	110.287	140
2	845559	110.3	150
2	846997	110.5	150
2	847011	110.5	160
2	848666	110.7	20
2	850118	110.9	30
2	851610	111.1	40
2	853046	111.3	50
2	854488	111.5	60
2	855928	111.7	70
2	857366	111.9	80
2	858852	112.1	90
2	860145	112.3	100
2	861739	112.5	110
2	862869	112.7	120
2	865761	113.082	130
2	865951	113.1	140
2	867550	113.3	150
2	868687	113.5	150
2	868701	113.5	160
2	870162	113.7	30
2	871826	113.9	40
2	873478	114.1	50
2	874916	114.3	60
2	876346	114.5	70
2	877475	114.7	80
2	879011	114.9	90
2	880508	115.1	100
2	882991	115.482	110
2	883161	115.5	120
2	884834	115.7	130
2	886573	115.9	140
2	888051	116.1	150
2	889182	116.3	160
2	890611	116.5	160
2	890625	116.5	170
2	892374	116.7	30
2	894924	117.085	40
2	895078	117.1	50
2	896840	117.3	60
2	898308	117.5	70
2	900578	117.881	80
2	900852	117.9	90
2	902672	118.1	100
2	904134	118.3	110
2	905572	118.5	120
2	907008	118.7	130
2	908452	118.9	140
2	910979	119.285	150
2	911211	119.3	160
2	912562	119.5	160
2	912576	119.5	170
2	913939	119.7	30
2	915699	119.9	40
2	917305	120.1	50
2	918588	120.3	60
2	920189	120.5	70
2	921631	120.7	80
2	923079	120.9	90
2	924555	121.1	100
2	926990	121.484	110
2	927188	121.5	120
2	928883	121.7	130
2	930353	121.9	140
2	931835	122.1	150
2	932954	122.3	160
2	934593	122.5	160
2	934607	122.5	170
2	937294	122.885	20
2	937484	122.9	30
2	939131	123.1	40
2	940440	123.3	50
2	942039	123.5	60
2	943328	123.7	70
2	944933	123.9	80
2	948400	124.441	90
2	948400	124.441	100
2	948854	124.5	110
2	950802	124.7	120
2	953375	125.082	130
2	953565	125.1	140
2	955170	125.3	150
2	956610	125.5	150
2	956624	125.5	160
2	958114	125.7	20
2	959546	125.9	30
2	960727	126.1	40
2	962130	126.3	50
2	963800	126.5	60
2	965406	126.7	70
2	966281	126.9	80
2	968058	127.1	90
2	969234	127.3	100
2	970930	127.5	110
2	972716	127.7	120
2	974156	127.9	130
2	975642	128.1	140
2	977082	128.3	150
2	978510	128.5	150
2	978524	128.5	160
2	979772	128.7	20
2	981387	128.9	30
2	982973	129.1	40
1	5423	10.1	30
1	6378	10.3	40
1	7459	10.5	50
1	9887	10.7	60
1	12622	10.9	70
1	14739	11.1	80
1	16524	11.3	90
1	18022	11.5	90
1	20575	11.732	20
1	20575	11.732	30
1	21870	11.9	40
1	23821	12.1	50
1	25074	12.3	60
1	26222	12.5	70
1	28572	12.7	80
1	31002	12.9	90
1	32833	13.1	100
1	34383	13.3	110
1	35698	13.5	120
1	38114	13.7	130
1	40025	13.9	140
1	41852	14.1	150
1	43779	14.5	150
1	44519	14.531	160
1	44519	14.531	170
1	46222	14.7	40
1	47968	14.9	50
1	50245	15.1	60
1	52554	15.3	70
1	54035	15.5	80
1	56292	15.7	90
1	58197	15.9	100
1	60030	16.1	110
1	61817	16.3	120
1	63596	16.5	130
1	65389	16.7	140
1	67168	16.9	150
1	68989	17.1	160
1	70500	17.3	170
1	71429	17.5	170
1	71444	17.5	180
1	73077	17.7	40
1	75639	17.9	50
1	77945	18.1	60
1	79897	18.3	70
1	81694	18.5	80
1	83479	18.7	90
1	85089	18.9	100
1	87085	19.1	110
1	88880	19.3	120
1	90372	19.5	130
1	92125	19.7	140
1	94183	19.9	150
1	95959	20.1	160
1	97916	20.3	170
1	99692	20.5	170
1	99707	20.5	180
1	101282	20.7	20
1	102757	20.9	30
1	104999	21.1	40
1	106985	21.3	50
1	108772	21.5	60
1	110282	21.7	70
1	111748	21.9	80
1	113755	22.1	90
1	115434	22.3	100
1	117194	22.5	110
1	118722	22.7	120
1	122191	23.132	130
1	122191	23.132	140
1	124281	23.3	150
1	126882	23.5	150
1	126899	23.5	160
1	128744	23.7	20
1	130120	23.9	30
1	131795	24.1	40
1	136302	24.529	50
1	136302	24.529	60
1	137428	24.7	70
1	138980	24.9	80
1	141077	25.1	90
1	143229	25.3	100
1	145023	25.5	110
1	146627	25.7	120
1	148252	25.9	130
1	150436	26.1	140
1	152235	26.3	150
1	154006	26.5	150
1	154021	26.5	160
1	157994	26.933	20
1	157994	26.933	30
1	159120	27.1	40
1	160717	27.3	50
1	162911	27.5	60
1	164895	27.7	70
1	166684	27.9	80
1	170448	28.329	90
1	170448	28.329	100
1	171733	28.5	110
1	173304	28.7	120
1	175504	28.9	130
1	177262	29.1	140
1	178746	29.3	150
1	180935	29.5	150
1	180950	29.5	160
1	183012	29.7	20
1	184530	29.9	30
1	186046	30.1	40
1	188071	30.3	50
1	190230	30.5	60
1	192027	30.7	70
1	193812	30.9	80
1	195649	31.1	90
1	197434	31.3	100
1	199221	31.5	110
1	201004	31.7	120
1	202493	31.9	130
1	204296	32.1	140
1	206417	32.3	150
1	208017	32.5	150
1	208032	32.5	160
1	210058	32.7	20
1	211861	32.9	30
1	215907	33.331	40
1	215907	33.331	50
1	217170	33.5	60
1	219067	33.7	70
1	223110	34.129	80
1	223110	34.129	90
1	224388	34.3	100
1	226259	34.5	110
1	227895	34.7	120
1	229559	34.9	130
1	230931	35.1	140
1	233288	35.3	150
1	235272	35.5	150
1	235287	35.5	160
1	237142	35.7	20
1	238933	35.9	30
1	240762	36.1	40
1	244786	36.536	50
1	244786	36.536	60
1	246009	36.7	70
1	247924	36.9	80
1	249745	37.1	90
1	251546	37.3	100
1	253325	37.5	110
1	255116	37.7	120
1	256893	37.9	130
1	258726	38.1	140
1	260515	38.3	150
1	262135	38.5	150
1	264603	38.731	10
1	264603	38.731	20
1	265857	38.9	30
1	267798	39.1	40
1	269309	39.3	50
1	270780	39.5	60
1	272978	39.7	70
1	274721	39.9	80
1	276249	40.1	90
1	278500	40.3	100
1	280256	40.5	110
1	282198	40.7	120
1	283709	40.9	130
1	285226	41.1	140
1	287191	41.3	150
1	288854	41.5	150
1	288869	41.5	160
1	291194	41.7	40
1	293107	41.9	50
1	294934	42.1	60
1	296568	42.3	70
1	298520	42.5	80
1	302397	42.931	90
1	302397	42.931	100
1	303555	43.1	110
1	305126	43.3	120
1	307323	43.5	130
1	309320	43.7	140
1	311103	43.9	150
1	312940	44.1	160
1	314711	44.3	170
1	316488	44.5	170
1	316503	44.5	180
1	318360	44.7	20
1	320155	44.9	30
1	321980	45.1	40
1	323761	45.3	50
1	325546	45.5	60
1	327335	45.7	70
1	331140	46.131	80
1	331140	46.131	90
1	332131	46.3	100
1	333382	46.5	110
1	335326	46.7	120
1	337698	46.9	130
1	339823	47.1	140
1	341645	47.3	150
1	343576	47.5	150
1	343591	47.5	160
1	345452	47.7	20
1	347243	47.9	30
1	348895	48.1	40
1	350673	48.3	50
1	352640	48.5	60
1	356418	48.933	70
1	356418	48.933	80
1	357505	49.1	90
1	362102	49.53	100
1	362102	49.53	110
1	363394	49.7	120
1	365000	49.9	130
1	366363	50.1	140
1	368730	50.3	150
1	370710	50.5	150
1	370725	50.5	160
1	372580	50.7	20
1	374367	50.9	30
1	376192	51.1	40
1	377699	51.3	50
1	379005	51.5	60
1	380881	51.7	70
1	382468	51.9	80
1	384933	52.1	90
1	386762	52.3	100
1	388259	52.5	110
1	390467	52.7	120
1	392286	52.9	130
1	394288	53.1	140
1	395813	53.3	150
1	397123	53.5	150
1	397138	53.5	160
1	399563	53.7	40
1	401553	53.9	50
1	405652	54.338	60
1	405652	54.338	70
1	406856	54.5	80
1	408759	54.7	90
1	410540	54.9	100
1	412136	55.1	110
1	413608	55.3	120
1	415869	55.5	130
1	417776	55.7	140
1	419279	55.9	150
1	420623	56.1	160
1	422810	56.3	170
1	424804	56.5	170
1	424819	56.5	180
1	426860	56.7	20
1	430566	57.131	30
1	430566	57.131	40
1	432117	57.3	50
1	434136	57.5	60
1	435927	57.7	70
1	439863	58.132	80
1	439863	58.132	90
1	440938	58.3	100
1	442300	58.5	110
1	443689	58.7	120
1	445726	58.9	130
1	450815	59.331	140
1	450815	59.331	150
1	452060	59.5	150
1	452075	59.5	160
1	454032	59.7	20
1	455824	59.9	30
1	457650	60.1	40
1	461286	60.532	50
1	461286	60.532	60
1	462720	60.7	70
1	464831	60.9	80
1	466504	61.1	90
1	468452	61.3	100
1	470078	61.5	110
1	472026	61.7	120
1	475853	62.13	130
1	475853	62.13	140
1	477148	62.3	150
1	478700	62.5	150
1	478715	62.5	160
1	480795	62.7	40
1	482383	62.9	50
1	484626	63.1	60
1	486324	63.3	70
1	487791	63.5	80
1	489994	63.7	90
1	491719	63.9	100
1	493242	64.1	110
1	495457	64.3	120
1	497449	64.5	130
1	499224	64.7	140
1	500691	64.9	150
1	502846	65.1	160
1	504657	65.3	170
1	506430	65.5	170
1	506445	65.5	180
1	508296	65.7	20
1	510079	65.9	30
1	511916	66.1	40
1	513701	66.3	50
1	515327	66.5	60
1	517277	66.7	70
1	519060	66.9	80
1	520720	67.1	90
1	522670	67.3	100
1	524479	67.5	110
1	526258	67.7	120
1	528051	67.9	130
1	529878	68.1	140
1	531661	68.3	150
1	533432	68.5	150
1	533447	68.5	160
1	534871	68.7	20
1	536509	68.9	30
1	538594	69.1	40
1	540750	69.3	50
1	542544	69.5	60
1	544325	69.7	70
1	546112	69.9	80
1	547663	70.1	90
1	549136	70.3	100
1	551326	70.5	110
1	557714	71.419	120
1	557714	71.419	130
1	557714	71.419	140
1	558707	71.5	140
1	561390	71.835	20
1	564299	72.252	30
1	564299	72.252	40
1	566804	72.481	50
1	566804	72.481	60
1	566804	72.481	70
1	567339	72.5	80
1	570780	72.7	90
1	572760	72.9	100
1	574081	73.1	110
1	575672	73.3	120
1	577139	73.5	130
1	578585	73.7	140
1	580027	73.9	150
1	581505	74.1	160
1	582947	74.3	170
1	584375	74.5	170
1	584389	74.5	180
1	585875	74.7	20
1	587313	74.9	30
1	590387	75.33	40
1	590387	75.33	50
1	593209	75.847	60
1	593209	75.847	70
1	593818	75.9	80
1	596138	76.1	90
1	597364	76.3	100
1	598757	76.5	110
1	600204	76.7	120
1	601984	76.9	130
1	603325	77.1	140
1	604930	77.3	150
1	606374	77.5	150
1	606388	77.5	160
1	607872	77.7	20
1	609316	77.9	30
1	610806	78.1	40
1	612232	78.3	50
1	613680	78.5	60
1	615122	78.7	70
1	616403	78.9	80
1	618050	79.1	90
1	618979	79.3	100
1	620750	79.5	110
1	622404	79.7	120
1	623852	79.9	130
1	625332	80.1	140
1	626534	80.3	150
1	628139	80.5	150
1	628153	80.5	160
1	629733	80.7	20
1	632570	81.133	30
1	632570	81.133	40
1	633886	81.3	50
1	635609	81.5	60
1	638962	82.018	70
1	638962	82.018	80
1	639671	82.1	90
1	642986	82.53	100
1	642986	82.53	110
1	644231	82.7	120
1	645791	82.9	130
1	647273	83.1	140
1	648542	83.3	150
1	650135	83.5	150
1	650149	83.5	160
1	651651	83.7	20
1	653095	83.9	30
1	654587	84.1	40
1	656019	84.3	50
1	657294	84.5	60
1	658889	84.7	70
1	660190	84.9	80
1	661843	85.1	90
1	665151	85.616	100
1	665151	85.616	110
1	665895	85.7	120
1	669403	86.134	130
1	669403	86.134	140
1	671704	86.5	140
1	672317	86.529	150
1	672317	86.529	160
1	673443	86.7	30
1	674973	86.9	40
1	676465	87.1	50
1	677897	87.3	60
1	679099	87.5	70
1	680188	87.7	80
1	681775	87.9	90
1	683771	88.1	100
1	685044	88.3	110
1	686651	88.5	120
1	688101	88.7	130
1	689309	88.9	140
1	690958	89.1	150
1	692504	89.3	160
1	693938	89.5	160
1	693952	89.5	170
1	695430	89.7	20
1	696876	89.9	30
1	698354	90.1	40
1	699641	90.3	50
1	701254	90.5	60
1	702686	90.7	70
1	705951	91.144	80
1	705951	91.144	90
1	706962	91.3	100
1	708514	91.5	110
1	709718	91.7	120
1	711185	91.9	130
1	712935	92.1	140
1	714379	92.3	150
1	715805	92.5	150
1	715819	92.5	160
1	717152	92.7	20
1	718751	92.9	30
1	719726	93.1	40
1	721323	93.3	50
1	722909	93.5	60
1	724390	93.7	70
1	726092	93.9	80
1	727409	94.1	90
1	728844	94.3	100
1	730456	94.5	110
1	731755	94.7	120
1	733182	94.9	130
1	736506	95.33	140
1	737440	95.5	140
1	738102	95.561	150
1	738102	95.561	160
1	738933	95.7	30
1	740708	95.9	40
1	742125	96.1	50
1	743728	96.3	60
1	745190	96.5	70
1	746618	96.7	80
1	747830	96.9	90
1	749483	97.1	100
1	750508	97.3	110
1	752279	97.5	120
1	753941	97.7	130
1	755375	97.9	140
1	756863	98.1	150
1	758150	98.3	160
1	759733	98.5	160
1	761519	98.889	10
1	761519	98.889	20
1	761934	98.9	30
1	764047	99.1	40
1	765660	99.3	50
1	767094	99.5	60
1	768536	99.7	70
1	771735	100.133	80
1	771735	100.133	90
1	772790	100.3	100
1	774201	100.5	110
1	775798	100.7	120
1	777248	100.9	130
1	778730	101.1	140
1	781287	101.5	140
1	781908	101.53	150
1	781908	101.53	160
1	783016	101.7	30
1	784554	101.9	40
1	785869	102.1	50
1	787472	102.3	60
1	788926	102.5	70
1	790368	102.7	80
1	793313	103.133	90
1	793313	103.133	100
1	794304	103.3	110
1	796192	103.5	120
1	797652	103.7	130
1	799096	103.9	140
1	800584	104.1	150
1	802020	104.3	160
1	803452	104.5	160
1	803466	104.5	170
1	804948	104.7	20
1	806386	104.9	30
1	807868	105.1	40
1	809312	105.3	50
1	810510	105.5	60
1	812125	105.7	70
1	813661	105.9	80
1	814913	106.1	90
1	816520	106.3	100
1	817822	106.5	110
1	819431	106.7	120
1	820973	106.9	130
1	822312	107.1	140
1	823909	107.3	150
1	825339	107.5	150
1	825353	107.5	160
1	826837	107.7	20
1	828108	107.9	30
1	831489	108.335	40
1	831489	108.335	50
1	832551	108.5	60
1	834103	108.7	70
1	835555	108.9	80
1	837031	109.1	90
1	838477	109.3	100
1	839921	109.5	110
1	841196	109.7	120
1	842807	109.9	130
1	844293	110.1	140
1	845558	110.3	150
1	846996	110.5	150
1	847010	110.5	160
1	848665	110.7	20
1	850117	110.9	30
1	851609	111.1	40
1	853045	111.3	50
1	854487	111.5	60
1	855927	111.7	70
1	857365	111.9	80
1	858851	112.1	90
1	860144	112.3	100
1	863440	112.73	110
1	863440	112.73	120
1	864535	112.9	130
1	865950	113.1	140
1	868686	113.5	140
1	869302	113.529	150
1	870930	113.759	20
1	870930	113.759	30
1	871825	113.9	40
1	873477	114.1	50
1	874915	114.3	60
1	877935	114.729	70
1	877935	114.729	80
1	879010	114.9	90
1	880507	115.1	100
1	883635	115.531	110
1	883635	115.531	120
1	884833	115.7	130
1	886572	115.9	140
1	889646	116.331	150
1	889646	116.331	160
1	890610	116.5	160
1	890624	116.5	170
1	892373	116.7	30
1	893913	116.9	40
1	895077	117.1	50
1	896839	117.3	60
1	898307	117.5	70
1	899739	117.7	80
1	900851	117.9	90
1	902671	118.1	100
1	904133	118.3	110
1	905571	118.5	120
1	907007	118.7	130
1	908451	118.9	140
1	909780	119.1	150
1	911210	119.3	160
1	912561	119.5	160
1	914515	119.735	20
1	914515	119.735	30
1	915698	119.9	40
1	917304	120.1	50
1	918587	120.3	60
1	920188	120.5	70
1	921630	120.7	80
1	923078	120.9	90
1	926136	121.33	100
1	926136	121.33	110
1	927187	121.5	120
1	928882	121.7	130
1	930352	121.9	140
1	933536	122.332	150
1	933536	122.332	160
1	934592	122.5	160
1	934606	122.5	170
1	936212	122.7	20
1	937483	122.9	30
1	939130	123.1	40
1	940439	123.3	50
1	942038	123.5	60
1	943327	123.7	70
1	944932	123.9	80
1	946178	124.1	90
1	947276	124.3	100
1	948853	124.5	110
1	950801	124.7	120
1	952249	124.9	130
1	953564	125.1	140
1	955169	125.3	150
1	956609	125.5	150
1	956623	125.5	160
1	958113	125.7	20
1	961319	126.131	30
1	962919	126.361	40
1	962919	126.361	50
1	963799	126.5	60
1	967295	127.014	70
1	967295	127.014	80
1	970210	127.427	90
1	970210	127.427	100
1	970929	127.5	110
1	972715	127.7	120
1	974155	127.9	130
1	975641	128.1	140
1	977081	128.3	150
1	978509	128.5	150
1	978523	128.5	160
1	979771	128.7	20
1	981386	128.9	30
1	982972	129.1	40
1	984401	129.3	50
1	985514	129.5	60
1	986617	129.7	70
1	987708	129.9	80
1	988848	130.1	90
1	991145	130.532	100
1	991145	130.532	110
1	992031	130.7	120
1	993244	130.9	130
1	994385	131.1	140
1	995482	131.3	150
1	996567	131.5	150
1	996580	131.5	160
1	997701	131.7	20
1	998798	131.9	30
1	999937	132.1	40
1	1001030	132.3	50
1	1001972	132.5	60
1	1003232	132.7	70
1	1004325	132.9	80
1	1005470	133.1	90
1	1006561	133.3	100
1	1007656	133.5	110
1	1008753	133.7	120
1	1009842	133.9	130
1	1010741	134.1	140
1	1012004	134.3	150
1	1013189	134.5	150
1	1013202	134.5	160
1	1014325	134.7	20
1	1016951	135.24	30
1	1017885	135.471	40
1	1018976	135.614	50
1	1018976	135.614	60
1	1019652	135.7	70
1	1021053	135.9	80
1	1022194	136.1	90
1	1023289	136.3	100
1	1024384	136.5	110
1	1024958	136.7	120
1	1026381	136.9	130
1	1027742	137.1	140
1	1028837	137.3	150
1	1029920	137.5	150
1	1029933	137.5	160
1	1030812	137.7	20
1	1032077	137.9	30
1	1033312	138.1	40
1	1034405	138.3	50
1	1035504	138.5	60
1	1036603	138.7	70
1	1037694	138.9	80
1	1038837	139.1	90
1	1039932	139.3	100
1	1042365	139.818	110
1	1042365	139.818	120
1	1042900	139.9	130
1	1044375	140.1	140
1	1045480	140.3	150
1	1046561	140.5	150
1	1046574	140.5	160
1	1047691	140.7	20
1	1048786	140.9	30
1	1049929	141.1	40
1	1051020	141.3	50
1	1052119	141.5	60
1	1053208	141.7	70
1	1054305	141.9	80
1	1055206	142.1	90
1	1056423	142.3	100
1	1057139	142.5	110
1	1058568	142.7	120
1	1061122	143.13	130
1	1061122	143.13	140
1	1062031	143.3	150
1	1063218	143.5	150
1	1063231	143.5	160
1	1064346	143.7	20
1	1065445	143.9	30
1	1066578	144.1	40
1	1068882	144.535	50
1	1068882	144.535	60
1	1069755	144.7	70
1	1070455	144.9	80
1	1073346	145.33	90
1	1073346	145.33	100
1	1074254	145.5	110
1	1075449	145.7	120
1	1076546	145.9	130
1	1077683	146.1	140
1	1078772	146.3	150
1	1079865	146.5	150
1	1079878	146.5	160
1	1080991	146.7	20
1	1083341	147.133	30
1	1083341	147.133	40
1	1084216	147.3	50
1	1086520	147.733	60
1	1086520	147.733	70
1	1087368	147.9	80
1	1088790	148.1	90
1	1089890	148.3	100
1	1090980	148.5	110
1	1092073	148.7	120
1	1093023	148.9	130
1	1094311	149.1	140
1	1095170	149.3	150
1	1096279	149.5	150
1	1096292	149.5	160
1	1097671	149.7	20
1	1098768	149.9	30
1	1099629	150.1	40
1	1101606	150.534	50
1	1101606	150.534	60
1	1103028	150.7	70
1	1104359	150.9	80
1	1105512	151.1	90
1	1106603	151.3	100
1	1107698	151.5	110
1	1108797	151.7	120
1	1109888	151.9	130
1	1110777	152.1	140
1	1111820	152.3	150
1	1112923	152.5	150
1	1112936	152.5	160
1	1114405	152.7	20
1	1115494	152.9	30
1	1116641	153.1	40
1	1117724	153.3	50
1	1118680	153.5	60
1	1119927	153.7	70
1	1121031	153.9	80
1	1122170	154.1	90
1	1123271	154.3	100
1	1124356	154.5	110
1	1126657	154.93	120
1	1126657	154.93	130
1	1127613	155.1	140
1	1128649	155.3	150
1	1129895	155.5	150
1	1129909	155.5	160
1	1131027	155.7	20
1	1132124	155.9	30
1	1133112	156.1	40
1	1134372	156.3	50
1	1135465	156.5	60
1	1136562	156.7	70
1	1137657	156.9	80
1	1138798	157.1	90
1	1141097	157.531	100
1	1141097	157.531	110
1	1141987	157.7	120
1	1143033	157.9	130
1	1144337	158.1	140
1	1145190	158.3	150
1	1146449	158.5	150
1	1146462	158.5	160
1	1147677	158.7	20
1	1148778	158.9	30
1	1149917	159.1	40
1	1151014	159.3	50
1	1152109	159.5	60
1	1153202	159.7	70
1	1154291	159.9	80
1	1155436	160.1	90
1	1156525	160.3	100
1	1157620	160.5	110
1	1158725	160.7	120
1	1159818	160.9	130
1	1160959	161.1	140
1	1162054	161.3	150
1	1163139	161.5	150
1	1163152	161.5	160
1	1164270	161.7	20
1	1165209	161.9	30
1	1166361	162.1	40
1	1167624	162.3	50
1	1168717	162.5	60
1	1169820	162.7	70
1	1170915	162.9	80
1	1171810	163.1	90
1	1173073	163.3	100
1	1174270	163.5	110
1	1176564	163.932	120
1	1176564	163.932	130
1	1178820	164.332	140
1	1178820	164.332	150
1	1179699	164.5	150
1	1179712	164.5	160
1	1180945	164.7	20
1	1181891	164.9	30
1	1183191	165.1	40
1	1185495	165.533	50
1	1185495	165.533	60
1	1186372	165.7	70
1	1187587	165.9	80
1	1189935	166.33	90
1	1189935	166.33	100
1	1190848	166.5	110
1	1192043	166.7	120
1	1193140	166.9	130
1	1194281	167.1	140
1	1195376	167.3	150
1	1196455	167.5	150
1	1196468	167.5	160
1	1198683	167.941	20
1	1198683	167.941	30
1	1199762	168.1	40
1	1202044	168.618	50
1	1202044	168.618	60
1	1202740	168.7	70
1	1204287	168.9	80
1	1205434	169.1	90
1	1207731	169.53	100
1	1207731	169.53	110
1	1208635	169.7	120
1	1209832	169.9	130
1	1210969	170.1	140
1	1211822	170.3	150
1	1213071	170.5	150
1	1213084	170.5	160
1	1214309	170.7	20
1	1215400	170.9	30
1	1216539	171.1	40
1	1217632	171.3	50
1	1218731	171.5	60
1	1219828	171.7	70
1	1222172	172.131	80
1	1222172	172.131	90
1	1223075	172.3	100
1	1224270	172.5	110
1	1225365	172.7	120
1	1226458	172.9	130
1	1227601	173.1	140
1	1228696	173.3	150
1	1229777	173.5	150
1	1229790	173.5	160
1	1230756	173.7	20
1	1232018	173.9	30
1	1233161	174.1	40
1	1234004	174.3	50
1	1235119	174.5	60
1	1236486	174.7	70
1	1237583	174.9	80
1	1238722	175.1	90
vector 15 FastSMRModel.logicComputer[0].node[5] QdLengthVector:vector ETV
attr source QdLength
attr title "Qd Length, vector"
vector 16 FastSMRModel.logicComputer[0].node[6] QdLengthVector:vector ETV
attr source QdLength
attr title "Qd Length, vector"
vector 17 FastSMRModel.logicComputer[0].node[7] QdLengthVector:vector ETV
attr source QdLength
attr title "Qd Length, vector"
13	7832	10.519	30
13	7832	10.519	40
13	7832	10.519	50
13	9891	10.7	60
13	12626	10.9	70
13	14743	11.1	80
13	16528	11.3	90
13	18026	11.5	90
13	18042	11.5	100
13	19752	11.7	110
13	21874	11.9	40
13	26742	12.519	50
13	26742	12.519	60
13	26742	12.519	70
13	28576	12.7	80
13	31006	12.9	90
13	36308	13.52	100
13	36308	13.52	110
13	36308	13.52	120
13	38118	13.7	130
13	40029	13.9	140
13	43783	14.5	140
13	44183	14.518	150
13	44183	14.518	160
13	48660	14.956	30
13	48660	14.956	40
13	48660	14.956	50
13	54677	15.521	60
13	54677	15.521	70
13	54677	15.521	80
13	56296	15.7	90
13	58201	15.9	100
13	60034	16.1	110
13	61821	16.3	120
13	63600	16.5	130
13	65393	16.7	140
13	67172	16.9	150
13	68993	17.1	160
13	71433	17.5	160
13	73800	17.722	20
13	73800	17.722	30
13	73800	17.722	40
13	75643	17.9	50
13	77949	18.1	60
13	79901	18.3	70
13	81698	18.5	80
13	83483	18.7	90
13	85093	18.9	100
13	87089	19.1	110
13	88884	19.3	120
13	90376	19.5	130
13	92129	19.7	140
13	94187	19.9	150
13	95963	20.1	160
13	97920	20.3	170
13	99696	20.5	170
13	99711	20.5	180
13	101286	20.7	190
13	102761	20.9	30
13	105003	21.1	40
13	106989	21.3	50
13	108776	21.5	60
13	110286	21.7	70
13	116090	22.322	80
13	119472	22.742	90
13	122494	23.162	100
13	122494	23.162	110
13	122494	23.162	120
13	122494	23.162	130
13	122494	23.162	140
13	124285	23.3	150
13	126886	23.5	150
13	126903	23.5	160
13	128748	23.7	170
13	130124	23.9	30
13	131799	24.1	40
13	133998	24.3	50
13	135673	24.5	60
13	137432	24.7	70
13	138984	24.9	80
13	141081	25.1	90
13	143233	25.3	100
13	145027	25.5	110
13	146631	25.7	120
13	148256	25.9	130
13	150440	26.1	140
13	152239	26.3	150
13	154010	26.5	150
13	154025	26.5	160
13	155885	26.7	170
13	157360	26.9	30
13	159124	27.1	40
13	160721	27.3	50
13	162915	27.5	60
13	164899	27.7	70
13	166688	27.9	80
13	168513	28.1	90
13	169830	28.3	100
13	171737	28.5	110
13	173308	28.7	120
13	175508	28.9	130
13	177266	29.1	140
13	178750	29.3	150
13	180939	29.5	150
13	180954	29.5	160
13	183016	29.7	170
13	184534	29.9	30
13	186050	30.1	40
13	188075	30.3	50
13	190234	30.5	60
13	192031	30.7	70
13	193816	30.9	80
13	195653	31.1	90
13	197438	31.3	100
13	199225	31.5	110
13	201008	31.7	120
13	202497	31.9	130
13	204300	32.1	140
13	206421	32.3	150
13	208021	32.5	150
13	208036	32.5	160
13	210062	32.7	170
13	211865	32.9	30
13	213692	33.1	40
13	215162	33.3	50
13	217174	33.5	60
13	219071	33.7	70
13	220852	33.9	80
13	222370	34.1	90
13	224392	34.3	100
13	226263	34.5	110
13	227899	34.7	120
13	229563	34.9	130
13	230935	35.1	140
13	233292	35.3	150
13	235276	35.5	150
13	235291	35.5	160
13	237146	35.7	170
13	238937	35.9	30
13	240766	36.1	40
13	242394	36.3	50
13	244019	36.5	60
13	246013	36.7	70
13	247928	36.9	80
13	249749	37.1	90
13	251550	37.3	100
13	253329	37.5	110
13	255120	37.7	120
13	256897	37.9	130
13	258730	38.1	140
13	260519	38.3	150
13	262139	38.5	150
13	262155	38.5	160
13	263851	38.7	170
13	265861	38.9	30
13	267802	39.1	40
13	269313	39.3	50
13	270784	39.5	60
13	276905	40.121	70
13	276905	40.121	80
13	276905	40.121	90
13	278504	40.3	100
13	280260	40.5	110
13	282202	40.7	120
13	283713	40.9	130
13	288858	41.5	130
13	289539	41.519	140
13	289539	41.519	150
13	289539	41.519	160
13	291198	41.7	170
13	293111	41.9	50
13	294938	42.1	60
13	296572	42.3	70
13	298524	42.5	80
13	300303	42.7	90
13	301767	42.9	100
13	303559	43.1	110
13	305130	43.3	120
13	307327	43.5	130
13	309324	43.7	140
13	311107	43.9	150
13	312944	44.1	160
13	314715	44.3	170
13	316492	44.5	170
13	316507	44.5	180
13	318364	44.7	170
13	320159	44.9	30
13	321984	45.1	40
13	323765	45.3	50
13	325550	45.5	60
13	327339	45.7	70
13	329126	45.9	80
13	333878	46.521	90
13	333878	46.521	100
13	333878	46.521	110
13	335330	46.7	120
13	337702	46.9	130
13	339827	47.1	140
13	341649	47.3	150
13	343580	47.5	150
13	343595	47.5	160
13	345456	47.7	170
13	347247	47.9	30
13	348899	48.1	40
13	350677	48.3	50
13	352644	48.5	60
13	354455	48.7	70
13	355923	48.9	80
13	357509	49.1	90
13	359268	49.3	100
13	361171	49.5	110
13	363398	49.7	120
13	365004	49.9	130
13	366367	50.1	140
13	368734	50.3	150
13	370714	50.5	150
13	370729	50.5	160
13	372584	50.7	170
13	374371	50.9	30
13	376196	51.1	40
13	377703	51.3	50
13	379009	51.5	60
13	380885	51.7	70
13	382472	51.9	80
13	384937	52.1	90
13	386766	52.3	100
13	388263	52.5	110
13	390471	52.7	120
13	392290	52.9	130
13	394292	53.1	140
13	395817	53.3	150
13	397127	53.5	150
13	397142	53.5	160
13	399567	53.7	170
13	401557	53.9	50
13	403394	54.1	60
13	404862	54.3	70
13	406860	54.5	80
13	408763	54.7	90
13	414248	55.318	100
13	414248	55.318	110
13	414248	55.318	120
13	415873	55.5	130
13	417780	55.7	140
13	419283	55.9	150
13	420627	56.1	160
13	422814	56.3	170
13	424808	56.5	170
13	424823	56.5	180
13	430166	57.119	20
13	430166	57.119	30
13	430166	57.119	40
13	432121	57.3	50
13	434140	57.5	60
13	435931	57.7	70
13	437712	57.9	80
13	439230	58.1	90
13	444221	58.719	100
13	444221	58.719	110
13	444221	58.719	120
13	445730	58.9	130
13	448308	59.1	140
13	450068	59.3	150
13	452064	59.5	150
13	452079	59.5	160
13	454036	59.7	170
13	455828	59.9	30
13	457654	60.1	40
13	459167	60.3	50
13	460329	60.5	60
13	462724	60.7	70
13	464835	60.9	80
13	466508	61.1	90
13	468456	61.3	100
13	470082	61.5	110
13	472030	61.7	120
13	473833	61.9	130
13	478704	62.5	130
13	479399	62.522	140
13	479399	62.522	150
13	483139	62.942	30
13	483139	62.942	40
13	483139	62.942	50
13	484630	63.1	60
13	486328	63.3	70
13	487795	63.5	80
13	489998	63.7	90
13	491723	63.9	100
13	493246	64.1	110
13	495461	64.3	120
13	497453	64.5	130
13	499228	64.7	140
13	500695	64.9	150
13	502850	65.1	160
13	504661	65.3	170
13	506434	65.5	170
13	506449	65.5	180
13	508300	65.7	170
13	510083	65.9	30
13	511920	66.1	40
13	513705	66.3	50
13	515331	66.5	60
13	517281	66.7	70
13	519064	66.9	80
13	520724	67.1	90
13	522674	67.3	100
13	524483	67.5	110
13	526262	67.7	120
13	528055	67.9	130
13	529882	68.1	140
13	531665	68.3	150
13	533436	68.5	150
13	533451	68.5	160
13	534875	68.7	170
13	536513	68.9	30
13	538598	69.1	40
13	540754	69.3	50
13	542548	69.5	60
13	544329	69.7	70
13	546116	69.9	80
13	547667	70.1	90
13	549140	70.3	100
13	551330	70.5	110
13	556820	71.329	120
13	556820	71.329	130
13	556820	71.329	140
13	558711	71.5	140
13	560965	71.749	20
13	563760	72.168	30
13	569153	72.591	40
13	569153	72.591	50
13	569153	72.591	60
13	569153	72.591	70
13	569153	72.591	80
13	570783	72.7	90
13	572763	72.9	100
13	574084	73.1	110
13	575675	73.3	120
13	577142	73.5	130
13	578588	73.7	140
13	580030	73.9	150
13	581508	74.1	160
13	582950	74.3	170
13	584378	74.5	170
13	584392	74.5	180
13	585878	74.7	20
13	587316	74.9	30
13	588802	75.1	40
13	591855	75.533	50
13	592777	75.763	60
13	592777	75.763	70
13	593821	75.9	80
13	597876	76.329	90
13	599362	76.562	100
13	599362	76.562	110
13	600207	76.7	120
13	601987	76.9	130
13	603328	77.1	140
13	604933	77.3	150
13	606377	77.5	150
13	606391	77.5	160
13	607875	77.7	20
13	609319	77.9	30
13	610809	78.1	40
13	612235	78.3	50
13	613683	78.5	60
13	615125	78.7	70
13	616406	78.9	80
13	619337	79.329	90
13	619337	79.329	100
13	620753	79.5	110
13	622407	79.7	120
13	623855	79.9	130
13	627048	80.329	140
13	627048	80.329	150
13	628142	80.5	150
13	628156	80.5	160
13	630893	80.933	20
13	630893	80.933	30
13	632162	81.1	40
13	633889	81.3	50
13	635612	81.5	60
13	638326	81.933	70
13	638326	81.933	80
13	639674	82.1	90
13	641436	82.3	100
13	642399	82.5	110
13	644234	82.7	120
13	645794	82.9	130
13	647276	83.1	140
13	648545	83.3	150
13	650138	83.5	150
13	650152	83.5	160
13	651654	83.7	20
13	653098	83.9	30
13	654590	84.1	40
13	656022	84.3	50
13	657297	84.5	60
13	658892	84.7	70
13	660193	84.9	80
13	661846	85.1	90
13	664570	85.531	100
13	664570	85.531	110
13	665898	85.7	120
13	667648	85.9	130
13	668817	86.1	140
13	670468	86.3	150
13	671707	86.5	150
13	671721	86.5	160
13	673446	86.7	30
13	674976	86.9	40
13	676468	87.1	50
13	679478	87.529	60
13	680778	87.761	70
13	680778	87.761	80
13	681778	87.9	90
13	683774	88.1	100
13	685047	88.3	110
13	686654	88.5	120
13	689827	88.935	130
13	689827	88.935	140
13	690961	89.1	150
13	692507	89.3	160
13	693941	89.5	160
13	693955	89.5	170
13	695433	89.7	20
13	696879	89.9	30
13	698357	90.1	40
13	699644	90.3	50
13	701257	90.5	60
13	702689	90.7	70
13	703958	90.9	80
13	705294	91.1	90
13	706965	91.3	100
13	710117	91.729	110
13	710117	91.729	120
13	711188	91.9	130
13	712938	92.1	140
13	714382	92.3	150
13	715808	92.5	150
13	715822	92.5	160
13	717155	92.7	20
13	719945	93.132	30
13	719945	93.132	40
13	723326	93.532	50
13	723326	93.532	60
13	724393	93.7	70
13	726095	93.9	80
13	727412	94.1	90
13	728847	94.3	100
13	730459	94.5	110
13	731758	94.7	120
13	735039	95.13	130
13	735039	95.13	140
13	735942	95.3	150
13	737443	95.5	150
13	739527	95.732	20
13	739527	95.732	30
13	740711	95.9	40
13	742128	96.1	50
13	743731	96.3	60
13	745193	96.5	70
13	748344	96.931	80
13	748344	96.931	90
13	750874	97.336	100
13	750874	97.336	110
13	752282	97.5	120
13	753944	97.7	130
13	755378	97.9	140
13	756866	98.1	150
13	758153	98.3	160
13	759736	98.5	160
13	760721	98.805	10
13	760721	98.805	20
13	761937	98.9	30
13	764050	99.1	40
13	765663	99.3	50
13	767097	99.5	60
13	768539	99.7	70
13	769975	99.9	80
13	771146	100.1	90
13	772793	100.3	100
13	774204	100.5	110
13	775801	100.7	120
13	777251	100.9	130
13	778733	101.1	140
13	780175	101.3	150
13	781290	101.5	150
13	781304	101.5	160
13	783019	101.7	30
13	784557	101.9	40
13	785872	102.1	50
13	787475	102.3	60
13	788929	102.5	70
13	790371	102.7	80
13	791811	102.9	90
13	792982	103.1	100
13	794307	103.3	110
13	796195	103.5	120
13	797655	103.7	130
13	799099	103.9	140
13	800587	104.1	150
13	802023	104.3	160
13	803455	104.5	160
13	803469	104.5	170
13	804951	104.7	20
13	806389	104.9	30
13	807871	105.1	40
13	811024	105.53	50
13	811024	105.53	60
13	812128	105.7	70
13	815429	106.131	80
13	815429	106.131	90
13	818356	106.536	100
13	818356	106.536	110
13	819434	106.7	120
13	820976	106.9	130
13	822315	107.1	140
13	823912	107.3	150
13	825342	107.5	150
13	825356	107.5	160
13	826840	107.7	20
13	828111	107.9	30
13	829756	108.1	40
13	830895	108.3	50
13	832554	108.5	60
13	834106	108.7	70
13	835558	108.9	80
13	837034	109.1	90
13	838480	109.3	100
13	839924	109.5	110
13	841199	109.7	120
13	842810	109.9	130
13	844296	110.1	140
13	845561	110.3	150
13	846999	110.5	150
13	847013	110.5	160
13	848668	110.7	20
13	850120	110.9	30
13	851612	111.1	40
13	853048	111.3	50
13	854490	111.5	60
13	855930	111.7	70
13	857368	111.9	80
13	858854	112.1	90
13	860147	112.3	100
13	861741	112.5	110
13	862871	112.7	120
13	864538	112.9	130
13	865953	113.1	140
13	867552	113.3	150
13	868689	113.5	150
13	868703	113.5	160
13	870164	113.7	30
13	871828	113.9	40
13	873480	114.1	50
13	874918	114.3	60
13	876348	114.5	70
13	877477	114.7	80
13	881027	115.134	90
13	881027	115.134	100
13	882117	115.3	110
13	883163	115.5	120
13	884836	115.7	130
13	886575	115.9	140
13	888053	116.1	150
13	890613	116.5	150
13	891256	116.53	160
13	891256	116.53	170
13	892376	116.7	30
13	893916	116.9	40
13	895080	117.1	50
13	896842	117.3	60
13	898310	117.5	70
13	899742	117.7	80
13	900854	117.9	90
13	902674	118.1	100
13	904136	118.3	110
13	905574	118.5	120
13	907010	118.7	130
13	908454	118.9	140
13	909783	119.1	150
13	912564	119.5	150
13	913016	119.531	150
13	913016	119.531	160
13	913941	119.7	30
13	915701	119.9	40
13	917307	120.1	50
13	918590	120.3	60
13	920191	120.5	70
13	921633	120.7	80
13	923081	120.9	90
13	924557	121.1	100
13	925690	121.3	110
13	927190	121.5	120
13	928885	121.7	130
13	930355	121.9	140
13	931837	122.1	150
13	932956	122.3	160
13	934595	122.5	160
13	934609	122.5	170
13	936215	122.7	20
13	937486	122.9	30
13	939133	123.1	40
13	940442	123.3	50
13	942041	123.5	60
13	943330	123.7	70
13	946559	124.131	80
13	947938	124.374	90
13	947938	124.374	100
13	948856	124.5	110
13	950804	124.7	120
13	952252	124.9	130
13	953567	125.1	140
13	955172	125.3	150
13	956612	125.5	150
13	956626	125.5	160
13	958116	125.7	20
13	959548	125.9	30
13	960729	126.1	40
13	962132	126.3	50
13	963802	126.5	60
13	966684	126.93	70
13	966684	126.93	80
13	969680	127.343	90
13	969680	127.343	100
13	970932	127.5	110
13	972718	127.7	120
13	974158	127.9	130
13	975644	128.1	140
13	977084	128.3	150
13	978512	128.5	150
13	980295	128.735	10
13	980295	128.735	20
13	981389	128.9	30
13	982975	129.1	40
13	984403	129.3	50
13	985516	129.5	60
13	986619	129.7	70
13	987710	129.9	80
13	988850	130.1	90
13	989941	130.3	100
13	990725	130.5	110
13	992033	130.7	120
13	993246	130.9	130
13	994387	131.1	140
13	995484	131.3	150
13	996569	131.5	150
13	996582	131.5	160
13	997703	131.7	20
13	998800	131.9	30
13	999939	132.1	40
13	1001032	132.3	50
13	1001974	132.5	60
13	1003234	132.7	70
13	1004327	132.9	80
13	1005472	133.1	90
13	1006563	133.3	100
13	1007658	133.5	110
13	1008755	133.7	120
13	1011091	134.13	130
13	1011091	134.13	140
13	1012006	134.3	150
13	1013191	134.5	150
13	1013204	134.5	160
13	1015399	134.933	20
13	1015399	134.933	30
13	1016168	135.1	40
13	1018329	135.53	50
13	1018329	135.53	60
13	1019654	135.7	70
13	1021055	135.9	80
13	1022196	136.1	90
13	1023291	136.3	100
13	1025148	136.731	110
13	1025148	136.731	120
13	1026383	136.9	130
13	1027744	137.1	140
13	1028839	137.3	150
13	1029922	137.5	150
13	1031160	137.73	10
13	1031160	137.73	20
13	1032079	137.9	30
13	1033314	138.1	40
13	1034407	138.3	50
13	1035506	138.5	60
13	1036605	138.7	70
13	1037696	138.9	80
13	1038839	139.1	90
13	1039934	139.3	100
13	1041787	139.731	110
13	1041787	139.731	120
13	1042902	139.9	130
13	1044377	140.1	140
13	1045482	140.3	150
13	1046563	140.5	150
13	1046576	140.5	160
13	1047693	140.7	20
13	1048788	140.9	30
13	1049931	141.1	40
13	1051022	141.3	50
13	1052121	141.5	60
13	1053210	141.7	70
13	1055680	142.154	80
13	1055680	142.154	90
13	1057329	142.533	100
13	1057329	142.533	110
13	1058570	142.7	120
13	1059875	142.9	130
13	1060703	143.1	140
13	1062033	143.3	150
13	1063220	143.5	150
13	1063233	143.5	160
13	1064348	143.7	20
13	1065447	143.9	30
13	1066580	144.1	40
13	1067681	144.3	50
13	1068463	144.5	60
13	1070645	144.933	70
13	1070645	144.933	80
13	1071926	145.1	90
13	1072924	145.3	100
13	1074256	145.5	110
13	1075451	145.7	120
13	1076548	145.9	130
13	1077685	146.1	140
13	1078774	146.3	150
13	1079867	146.5	150
13	1079880	146.5	160
13	1080993	146.7	20
13	1082094	146.9	30
13	1082918	147.1	40
13	1084218	147.3	50
13	1085439	147.5	60
13	1086215	147.7	70
13	1087370	147.9	80
13	1088792	148.1	90
13	1089892	148.3	100
13	1090982	148.5	110
13	1092075	148.7	120
13	1093025	148.9	130
13	1095403	149.331	140
13	1095403	149.331	150
13	1096281	149.5	150
13	1096294	149.5	160
13	1097673	149.7	20
13	1098770	149.9	30
13	1100485	150.329	40
13	1100485	150.329	50
13	1101367	150.5	60
13	1103030	150.7	70
13	1104361	150.9	80
13	1105514	151.1	90
13	1106605	151.3	100
13	1107700	151.5	110
13	1108799	151.7	120
13	1111139	152.136	130
13	1112231	152.368	140
13	1112231	152.368	150
13	1112925	152.5	150
13	1112938	152.5	160
13	1114407	152.7	20
13	1115496	152.9	30
13	1116643	153.1	40
13	1117726	153.3	50
13	1118682	153.5	60
13	1119929	153.7	70
13	1121033	153.9	80
13	1122172	154.1	90
13	1123273	154.3	100
13	1124358	154.5	110
13	1125459	154.7	120
13	1126237	154.9	130
13	1127615	155.1	140
13	1128651	155.3	150
13	1129897	155.5	150
13	1129911	155.5	160
13	1131029	155.7	20
13	1132126	155.9	30
13	1133114	156.1	40
13	1134374	156.3	50
13	1135467	156.5	60
13	1136564	156.7	70
13	1137659	156.9	80
13	1138800	157.1	90
13	1139891	157.3	100
13	1140673	157.5	110
13	1141989	157.7	120
13	1143035	157.9	130
13	1145544	158.329	140
13	1145544	158.329	150
13	1146451	158.5	150
13	1146464	158.5	160
13	1147679	158.7	20
13	1148780	158.9	30
13	1149919	159.1	40
13	1151016	159.3	50
13	1152111	159.5	60
13	1153204	159.7	70
13	1154293	159.9	80
13	1155438	160.1	90
13	1156527	160.3	100
13	1157622	160.5	110
13	1158727	160.7	120
13	1159820	160.9	130
13	1160961	161.1	140
13	1162056	161.3	150
13	1163141	161.5	150
13	1163154	161.5	160
13	1164272	161.7	20
13	1165211	161.9	30
13	1166363	162.1	40
13	1167626	162.3	50
13	1168719	162.5	60
13	1169822	162.7	70
13	1172160	163.13	80
13	1172160	163.13	90
13	1173075	163.3	100
13	1174272	163.5	110
13	1175359	163.7	120
13	1176143	163.9	130
13	1177493	164.1	140
13	1178395	164.3	150
13	1179701	164.5	150
13	1179714	164.5	160
13	1180947	164.7	20
13	1181893	164.9	30
13	1183193	165.1	40
13	1184288	165.3	50
13	1185072	165.5	60
13	1186374	165.7	70
13	1187589	165.9	80
13	1188577	166.1	90
13	1189520	166.3	100
13	1190850	166.5	110
13	1192045	166.7	120
13	1193142	166.9	130
13	1194283	167.1	140
13	1195378	167.3	150
13	1196457	167.5	150
13	1197449	167.731	10
13	1197449	167.731	20
13	1198144	167.9	30
13	1199764	168.1	40
13	1201305	168.532	50
13	1201305	168.532	60
13	1202742	168.7	70
13	1204289	168.9	80
13	1205436	169.1	90
13	1206527	169.3	100
13	1207307	169.5	110
13	1208637	169.7	120
13	1209834	169.9	130
13	1212170	170.33	140
13	1212170	170.33	150
13	1213073	170.5	150
13	1213086	170.5	160
13	1214311	170.7	20
13	1215402	170.9	30
13	1216541	171.1	40
13	1217634	171.3	50
13	1218733	171.5	60
13	1219830	171.7	70
13	1220925	171.9	80
13	1221751	172.1	90
13	1223077	172.3	100
13	1224272	172.5	110
13	1225367	172.7	120
13	1226460	172.9	130
13	1227603	173.1	140
13	1228698	173.3	150
13	1229779	173.5	150
13	1229792	173.5	160
13	1230758	173.7	20
13	1232020	173.9	30
13	1234237	174.33	40
13	1234237	174.33	50
13	1235121	174.5	60
13	1236488	174.7	70
13	1237585	174.9	80
13	1238724	175.1	90
13	1239815	175.3	100
13	1240565	175.5	110
13	1241321	175.7	120
13	1242073	175.9	130
13	1242859	176.1	140
13	1243465	176.3	150
13	1244380	176.5	150
13	1245050	177.277	150
13	1245050	177.277	160
13	1245050	177.277	170
13	1249148	179.098	180
13	1249148	179.098	190
13	1249148	179.098	200
13	1249148	179.098	210
13	1249148	179.098	220
13	1249148	179.098	230
13	1249148	179.098	240
13	1249148	179.098	250
13	1249148	179.098	260
13	1249148	179.098	270
13	1249148	179.098	280
13	1250480	179.1	290
13	1258240	179.5	290
13	1263197	179.712	300
13	1263197	179.712	310
13	1263197	179.712	320
13	1269666	180.307	330
13	1269666	180.307	340
13	1269666	180.307	350
13	1272468	180.5	360
13	1274957	180.7	370
13	1280623	180.9	380
13	1282728	181.1	390
13	1287533	181.3	400
13	1290000	181.5	410
13	1292270	181.7	420
13	1294206	181.9	430
13	1296209	182.1	440
13	1298018	182.3	160
13	1299785	182.5	160
13	1299797	182.5	170
13	1305255	183.105	110
13	1305255	183.105	120
13	1305255	183.105	130
13	1306939	183.3	140
13	1308840	183.5	150
13	1310627	183.7	160
13	1315523	184.31	120
13	1315523	184.31	130
13	1315523	184.31	140
13	1317020	184.5	150
13	1319637	184.7	160
13	1321491	184.9	170
13	1323037	185.1	160
13	1324846	185.3	150
13	1326609	185.5	150
13	1326621	185.5	160
13	1328116	185.7	110
14	8400	10.562	30
14	8400	10.562	40
14	8400	10.562	50
14	9889	10.7	60
14	12624	10.9	70
14	14741	11.1	80
14	18024	11.5	80
14	18655	11.529	90
14	18655	11.529	100
14	19750	11.7	30
14	21872	11.9	40
14	23823	12.1	50
14	25076	12.3	60
14	26224	12.5	70
14	28574	12.7	80
14	31004	12.9	90
14	32835	13.1	100
14	35489	13.484	110
14	35700	13.5	120
14	38116	13.7	130
14	40027	13.9	140
14	41854	14.1	150
14	43614	14.483	160
14	43781	14.5	160
14	43796	14.5	170
14	46224	14.7	40
14	47970	14.9	50
14	50247	15.1	60
14	52556	15.3	70
14	54037	15.5	80
14	56294	15.7	90
14	58199	15.9	100
14	60032	16.1	110
14	61819	16.3	120
14	63598	16.5	130
14	65391	16.7	140
14	67170	16.9	150
14	68991	17.1	160
14	70502	17.3	170
14	71431	17.5	170
14	71446	17.5	180
14	73079	17.7	40
14	75641	17.9	50
14	77947	18.1	60
14	79899	18.3	70
14	81696	18.5	80
14	83481	18.7	90
14	85091	18.9	100
14	87087	19.1	110
14	88882	19.3	120
14	90374	19.5	130
14	92127	19.7	140
14	95798	20.089	150
14	95961	20.1	160
14	97918	20.3	170
14	99694	20.5	170
14	99709	20.5	180
14	101284	20.7	20
14	102759	20.9	30
14	105001	21.1	40
14	106987	21.3	50
14	108774	21.5	60
14	110284	21.7	70
14	111750	21.9	80
14	113757	22.1	90
14	115436	22.3	100
14	117196	22.5	110
14	118724	22.7	120
14	120443	22.9	130
14	124116	23.288	140
14	124283	23.3	150
14	126884	23.5	150
14	126901	23.5	160
14	129981	23.889	20
14	130122	23.9	30
14	131797	24.1	40
14	133996	24.3	50
14	135671	24.5	60
14	137430	24.7	70
14	140906	25.084	80
14	141079	25.1	90
14	143231	25.3	100
14	145025	25.5	110
14	147939	25.884	120
14	148254	25.9	130
14	150438	26.1	140
14	152237	26.3	150
14	154008	26.5	150
14	154023	26.5	160
14	155883	26.7	20
14	157358	26.9	30
14	159122	27.1	40
14	160719	27.3	50
14	162913	27.5	60
14	164897	27.7	70
14	166686	27.9	80
14	169635	28.284	90
14	169828	28.3	100
14	171735	28.5	110
14	173306	28.7	120
14	175506	28.9	130
14	177264	29.1	140
14	178748	29.3	150
14	180937	29.5	150
14	180952	29.5	160
14	183014	29.7	20
14	184532	29.9	30
14	186048	30.1	40
14	188073	30.3	50
14	190232	30.5	60
14	192029	30.7	70
14	193814	30.9	80
14	195651	31.1	90
14	197436	31.3	100
14	199223	31.5	110
14	201006	31.7	120
14	202495	31.9	130
14	204298	32.1	140
14	206419	32.3	150
14	208019	32.5	150
14	208034	32.5	160
14	210060	32.7	20
14	211863	32.9	30
14	213690	33.1	40
14	215160	33.3	50
14	217172	33.5	60
14	219069	33.7	70
14	220850	33.9	80
14	222368	34.1	90
14	224390	34.3	100
14	227684	34.684	110
14	227897	34.7	120
14	230778	35.088	130
14	230933	35.1	140
14	233290	35.3	150
14	235274	35.5	150
14	235289	35.5	160
14	237144	35.7	20
14	238935	35.9	30
14	242179	36.283	40
14	242392	36.3	50
14	244017	36.5	60
14	246011	36.7	70
14	247926	36.9	80
14	249747	37.1	90
14	251548	37.3	100
14	253327	37.5	110
14	255118	37.7	120
14	256895	37.9	130
14	258728	38.1	140
14	261934	38.486	150
14	262137	38.5	150
14	262153	38.5	160
14	263849	38.7	20
14	265859	38.9	30
14	267800	39.1	40
14	269311	39.3	50
14	270782	39.5	60
14	272980	39.7	70
14	274723	39.9	80
14	276251	40.1	90
14	280045	40.486	100
14	280258	40.5	110
14	282200	40.7	120
14	283711	40.9	130
14	285228	41.1	140
14	287193	41.3	150
14	288856	41.5	150
14	288871	41.5	160
14	291196	41.7	40
14	293109	41.9	50
14	296355	42.282	60
14	296570	42.3	70
14	298522	42.5	80
14	300301	42.7	90
14	301765	42.9	100
14	303557	43.1	110
14	305128	43.3	120
14	307325	43.5	130
14	309322	43.7	140
14	311105	43.9	150
14	312942	44.1	160
14	314713	44.3	170
14	316490	44.5	170
14	316505	44.5	180
14	318362	44.7	20
14	320157	44.9	30
14	321982	45.1	40
14	323763	45.3	50
14	325548	45.5	60
14	327337	45.7	70
14	329124	45.9	80
14	330632	46.1	90
14	332133	46.3	100
14	333384	46.5	110
14	335328	46.7	120
14	339606	47.082	130
14	341394	47.282	140
14	341647	47.3	150
14	343578	47.5	150
14	343593	47.5	160
14	345454	47.7	20
14	347245	47.9	30
14	348897	48.1	40
14	350675	48.3	50
14	352642	48.5	60
14	354453	48.7	70
14	355921	48.9	80
14	357507	49.1	90
14	359266	49.3	100
14	361169	49.5	110
14	363396	49.7	120
14	366190	50.085	130
14	366365	50.1	140
14	368732	50.3	150
14	370712	50.5	150
14	370727	50.5	160
14	372582	50.7	20
14	374369	50.9	30
14	376194	51.1	40
14	377701	51.3	50
14	379007	51.5	60
14	380883	51.7	70
14	382470	51.9	80
14	384935	52.1	90
14	386764	52.3	100
14	388261	52.5	110
14	390469	52.7	120
14	392288	52.9	130
14	394290	53.1	140
14	396956	53.483	150
14	397125	53.5	150
14	397140	53.5	160
14	399565	53.7	40
14	401555	53.9	50
14	403392	54.1	60
14	404860	54.3	70
14	406858	54.5	80
14	408761	54.7	90
14	410542	54.9	100
14	412138	55.1	110
14	413610	55.3	120
14	415871	55.5	130
14	417778	55.7	140
14	419281	55.9	150
14	420625	56.1	160
14	422812	56.3	170
14	424806	56.5	170
14	424821	56.5	180
14	426862	56.7	190
14	428446	56.9	30
14	429643	57.1	40
14	432119	57.3	50
14	434138	57.5	60
14	435929	57.7	70
14	437710	57.9	80
14	439228	58.1	90
14	440940	58.3	100
14	442302	58.5	110
14	443691	58.7	120
14	445728	58.9	130
14	448306	59.1	140
14	450066	59.3	150
14	452062	59.5	150
14	452077	59.5	160
14	454034	59.7	20
14	455826	59.9	30
14	457652	60.1	40
14	459165	60.3	50
14	460327	60.5	60
14	462722	60.7	70
14	464833	60.9	80
14	466506	61.1	90
14	468454	61.3	100
14	470080	61.5	110
14	472028	61.7	120
14	474999	62.081	130
14	475192	62.1	140
14	477150	62.3	150
14	478702	62.5	150
14	478717	62.5	160
14	480797	62.7	40
14	482385	62.9	50
14	484628	63.1	60
14	486326	63.3	70
14	487793	63.5	80
14	489996	63.7	90
14	491721	63.9	100
14	493244	64.1	110
14	495459	64.3	120
14	497451	64.5	130
14	500390	64.887	140
14	500693	64.9	150
14	502848	65.1	160
14	504659	65.3	170
14	506432	65.5	170
14	506447	65.5	180
14	508298	65.7	20
14	510081	65.9	30
14	511918	66.1	40
14	515118	66.482	50
14	515329	66.5	60
14	517279	66.7	70
14	519062	66.9	80
14	520722	67.1	90
14	522672	67.3	100
14	524481	67.5	110
14	526260	67.7	120
14	528053	67.9	130
14	529880	68.1	140
14	531663	68.3	150
14	533434	68.5	150
14	534698	68.684	10
14	534873	68.7	20
14	538417	69.082	30
14	538596	69.1	40
14	540752	69.3	50
14	542546	69.5	60
14	544327	69.7	70
14	546114	69.9	80
14	547665	70.1	90
14	549138	70.3	100
14	551328	70.5	110
14	553318	70.7	120
14	554557	70.9	130
14	555471	71.1	140
14	556297	71.3	150
14	558709	71.5	150
14	558724	71.5	160
14	560327	71.7	40
14	561863	71.9	50
14	563103	72.1	60
14	564732	72.3	70
14	567341	72.5	80
14	570782	72.7	90
14	572762	72.9	100
14	574083	73.1	110
14	575674	73.3	120
14	577141	73.5	130
14	578587	73.7	140
14	580029	73.9	150
14	581507	74.1	160
14	582949	74.3	170
14	584377	74.5	170
14	584391	74.5	180
14	585877	74.7	20
14	587315	74.9	30
14	588801	75.1	40
14	589924	75.3	50
14	591365	75.5	60
14	593495	75.882	70
14	593820	75.9	80
14	596140	76.1	90
14	597366	76.3	100
14	598759	76.5	110
14	600206	76.7	120
14	601986	76.9	130
14	603327	77.1	140
14	604932	77.3	150
14	606376	77.5	150
14	606390	77.5	160
14	607874	77.7	20
14	609318	77.9	30
14	610808	78.1	40
14	612234	78.3	50
14	613682	78.5	60
14	616232	78.882	70
14	616405	78.9	80
14	619739	79.374	90
14	619739	79.374	100
14	620752	79.5	110
14	622406	79.7	120
14	623854	79.9	130
14	625334	80.1	140
14	626536	80.3	150
14	628141	80.5	150
14	628155	80.5	160
14	631221	80.977	20
14	631221	80.977	30
14	633735	81.286	40
14	633888	81.3	50
14	635611	81.5	60
14	637045	81.7	70
14	637930	81.9	80
14	639673	82.1	90
14	641435	82.3	100
14	642398	82.5	110
14	644233	82.7	120
14	645793	82.9	130
14	647275	83.1	140
14	648544	83.3	150
14	650137	83.5	150
14	650151	83.5	160
14	651653	83.7	20
14	653097	83.9	30
14	654589	84.1	40
14	656021	84.3	50
14	657296	84.5	60
14	660013	84.884	70
14	660192	84.9	80
14	661845	85.1	90
14	663287	85.3	100
14	664174	85.5	110
14	665897	85.7	120
14	667647	85.9	130
14	668816	86.1	140
14	670467	86.3	150
14	671706	86.5	150
14	671720	86.5	160
14	673445	86.7	30
14	674975	86.9	40
14	676467	87.1	50
14	677899	87.3	60
14	679101	87.5	70
14	680190	87.7	80
14	681777	87.9	90
14	683773	88.1	100
14	685046	88.3	110
14	686653	88.5	120
14	688103	88.7	130
14	689311	88.9	140
14	690960	89.1	150
14	692506	89.3	160
14	693940	89.5	160
14	693954	89.5	170
14	695432	89.7	20
14	696878	89.9	30
14	699472	90.282	40
14	699643	90.3	50
14	701256	90.5	60
14	702688	90.7	70
14	703957	90.9	80
14	705293	91.1	90
14	706964	91.3	100
14	708516	91.5	110
14	711008	91.883	120
14	711187	91.9	130
14	712937	92.1	140
14	714381	92.3	150
14	715807	92.5	150
14	716977	92.682	10
14	717154	92.7	20
14	720349	93.177	30
14	720349	93.177	40
14	721325	93.3	50
14	724179	93.684	60
14	724392	93.7	70
14	726094	93.9	80
14	727411	94.1	90
14	728846	94.3	100
14	730458	94.5	110
14	731757	94.7	120
14	733184	94.9	130
14	734624	95.1	140
14	735941	95.3	150
14	737442	95.5	150
14	737456	95.5	160
14	738935	95.7	30
14	740710	95.9	40
14	742127	96.1	50
14	743730	96.3	60
14	745192	96.5	70
14	746620	96.7	80
14	747832	96.9	90
14	751276	97.379	100
14	751276	97.379	110
14	752281	97.5	120
14	753943	97.7	130
14	755377	97.9	140
14	757979	98.284	150
14	758152	98.3	160
14	759735	98.5	160
14	761109	98.848	10
14	761109	98.848	20
14	763872	99.082	30
14	764049	99.1	40
14	765662	99.3	50
14	767096	99.5	60
14	768538	99.7	70
14	769974	99.9	80
14	771145	100.1	90
14	774030	100.484	100
14	774203	100.5	110
14	775800	100.7	120
14	777250	100.9	130
14	778732	101.1	140
14	780174	101.3	150
14	781289	101.5	150
14	781303	101.5	160
14	783018	101.7	30
14	784556	101.9	40
14	785871	102.1	50
14	787474	102.3	60
14	788928	102.5	70
14	790370	102.7	80
14	791810	102.9	90
14	794171	103.284	100
14	794306	103.3	110
14	796194	103.5	120
14	797654	103.7	130
14	799098	103.9	140
14	800586	104.1	150
14	802022	104.3	160
14	803454	104.5	160
14	803468	104.5	170
14	804950	104.7	20
14	806388	104.9	30
14	807870	105.1	40
14	809314	105.3	50
14	810512	105.5	60
14	812127	105.7	70
14	813663	105.9	80
14	814915	106.1	90
14	816522	106.3	100
14	817824	106.5	110
14	819433	106.7	120
14	822139	107.082	130
14	822314	107.1	140
14	823911	107.3	150
14	825341	107.5	150
14	825355	107.5	160
14	826839	107.7	20
14	828110	107.9	30
14	829755	108.1	40
14	830894	108.3	50
14	832553	108.5	60
14	834105	108.7	70
14	835557	108.9	80
14	837033	109.1	90
14	838479	109.3	100
14	841025	109.684	110
14	841198	109.7	120
14	842809	109.9	130
14	844295	110.1	140
14	846837	110.485	150
14	846998	110.5	150
14	847012	110.5	160
14	848667	110.7	20
14	850119	110.9	30
14	851611	111.1	40
14	853047	111.3	50
14	854489	111.5	60
14	855929	111.7	70
14	857367	111.9	80
14	859969	112.284	90
14	860146	112.3	100
14	861740	112.5	110
14	862870	112.7	120
14	864537	112.9	130
14	865952	113.1	140
14	867551	113.3	150
14	868688	113.5	150
14	868702	113.5	160
14	870163	113.7	30
14	871827	113.9	40
14	873479	114.1	50
14	874917	114.3	60
14	876347	114.5	70
14	878823	114.883	80
14	879012	114.9	90
14	880509	115.1	100
14	882116	115.3	110
14	884672	115.682	120
14	884835	115.7	130
14	886574	115.9	140
14	888052	116.1	150
14	889183	116.3	160
14	890612	116.5	160
14	890626	116.5	170
14	892375	116.7	30
14	894802	117.082	40
14	895079	117.1	50
14	896841	117.3	60
14	898309	117.5	70
14	900700	117.886	80
14	900853	117.9	90
14	902673	118.1	100
14	904135	118.3	110
14	905573	118.5	120
14	907009	118.7	130
14	909609	119.085	140
14	909782	119.1	150
14	911212	119.3	160
14	912563	119.5	160
14	912577	119.5	170
14	913940	119.7	30
14	915700	119.9	40
14	918416	120.286	50
14	918589	120.3	60
14	920190	120.5	70
14	921632	120.7	80
14	923080	120.9	90
14	924556	121.1	100
14	925689	121.3	110
14	927189	121.5	120
14	928884	121.7	130
14	930354	121.9	140
14	931836	122.1	150
14	932955	122.3	160
14	934594	122.5	160
14	934608	122.5	170
14	936214	122.7	20
14	937485	122.9	30
14	940268	123.285	40
14	940441	123.3	50
14	943154	123.684	60
14	943329	123.7	70
14	944934	123.9	80
14	946180	124.1	90
14	947278	124.3	100
14	948855	124.5	110
14	950803	124.7	120
14	952251	124.9	130
14	953566	125.1	140
14	955171	125.3	150
14	956611	125.5	150
14	956625	125.5	160
14	958115	125.7	20
14	959547	125.9	30
14	960728	126.1	40
14	962131	126.3	50
14	963801	126.5	60
14	965407	126.7	70
14	966282	126.9	80
14	968059	127.1	90
14	969235	127.3	100
14	970931	127.5	110
14	972717	127.7	120
14	974157	127.9	130
14	975643	128.1	140
14	977083	128.3	150
14	978511	128.5	150
14	978525	128.5	160
14	979773	128.7	20
14	981388	128.9	30
14	982974	129.1	40
14	984402	129.3	50
14	985515	129.5	60
14	986618	129.7	70
14	987709	129.9	80
14	988849	130.1	90
14	989940	130.3	100
14	990724	130.5	110
14	992032	130.7	120
14	993245	130.9	130
14	994386	131.1	140
14	995483	131.3	150
14	996568	131.5	150
14	996581	131.5	160
14	997702	131.7	20
14	998799	131.9	30
14	999938	132.1	40
14	1001821	132.482	50
14	1001973	132.5	60
14	1003233	132.7	70
14	1004326	132.9	80
14	1005471	133.1	90
14	1006562	133.3	100
14	1007657	133.5	110
14	1008754	133.7	120
14	1009843	133.9	130
14	1010742	134.1	140
14	1012005	134.3	150
14	1013190	134.5	150
14	1013203	134.5	160
14	1014326	134.7	20
14	1015169	134.9	30
14	1016167	135.1	40
14	1017221	135.3	50
14	1018064	135.5	60
14	1019653	135.7	70
14	1021054	135.9	80
14	1022195	136.1	90
14	1023290	136.3	100
14	1025544	136.774	110
14	1025544	136.774	120
14	1026382	136.9	130
14	1027743	137.1	140
14	1028838	137.3	150
14	1029921	137.5	150
14	1029934	137.5	160
14	1030813	137.7	20
14	1032078	137.9	30
14	1033313	138.1	40
14	1034406	138.3	50
14	1035505	138.5	60
14	1036604	138.7	70
14	1037695	138.9	80
14	1038838	139.1	90
14	1039933	139.3	100
14	1041026	139.5	110
14	1041558	139.7	120
14	1042901	139.9	130
14	1044376	140.1	140
14	1045481	140.3	150
14	1046562	140.5	150
14	1046575	140.5	160
14	1047692	140.7	20
14	1048787	140.9	30
14	1049930	141.1	40
14	1051021	141.3	50
14	1052120	141.5	60
14	1053209	141.7	70
14	1054306	141.9	80
14	1055207	142.1	90
14	1057729	142.576	100
14	1057729	142.576	110
14	1058569	142.7	120
14	1059874	142.9	130
14	1060702	143.1	140
14	1062032	143.3	150
14	1063219	143.5	150
14	1063232	143.5	160
14	1064347	143.7	20
14	1065446	143.9	30
14	1066579	144.1	40
14	1067680	144.3	50
14	1068462	144.5	60
14	1071067	144.987	70
14	1071067	144.987	80
14	1071925	145.1	90
14	1072923	145.3	100
14	1074255	145.5	110
14	1075450	145.7	120
14	1076547	145.9	130
14	1077684	146.1	140
14	1078773	146.3	150
14	1079866	146.5	150
14	1079879	146.5	160
14	1080992	146.7	20
14	1082093	146.9	30
14	1082917	147.1	40
14	1084217	147.3	50
14	1085438	147.5	60
14	1087235	147.884	70
14	1087369	147.9	80
14	1088791	148.1	90
14	1089891	148.3	100
14	1090981	148.5	110
14	1092870	148.882	120
14	1093024	148.9	130
14	1094312	149.1	140
14	1096134	149.486	150
14	1096280	149.5	150
14	1096293	149.5	160
14	1097672	149.7	20
14	1100034	150.189	30
14	1100803	150.375	40
14	1102010	150.558	50
14	1102010	150.558	60
14	1103029	150.7	70
14	1104360	150.9	80
14	1105513	151.1	90
14	1106604	151.3	100
14	1107699	151.5	110
14	1108798	151.7	120
14	1109889	151.9	130
14	1110778	152.1	140
14	1112782	152.483	150
14	1112924	152.5	150
14	1112937	152.5	160
14	1114406	152.7	20
14	1115495	152.9	30
14	1116642	153.1	40
14	1118537	153.488	50
14	1118681	153.5	60
14	1119928	153.7	70
14	1121032	153.9	80
14	1122171	154.1	90
14	1123272	154.3	100
14	1124357	154.5	110
14	1125458	154.7	120
14	1126236	154.9	130
14	1128502	155.283	140
14	1128650	155.3	150
14	1129896	155.5	150
14	1129910	155.5	160
14	1131028	155.7	20
14	1132963	156.083	30
14	1133113	156.1	40
14	1134373	156.3	50
14	1135466	156.5	60
14	1136563	156.7	70
14	1137658	156.9	80
14	1138799	157.1	90
14	1139890	157.3	100
14	1140672	157.5	110
14	1142880	157.882	120
14	1143034	157.9	130
14	1144338	158.1	140
14	1145191	158.3	150
14	1146450	158.5	150
14	1146463	158.5	160
14	1147678	158.7	20
14	1148779	158.9	30
14	1149918	159.1	40
14	1151015	159.3	50
14	1152110	159.5	60
14	1153203	159.7	70
14	1154292	159.9	80
14	1155437	160.1	90
14	1156526	160.3	100
14	1157621	160.5	110
14	1158726	160.7	120
14	1159819	160.9	130
14	1160960	161.1	140
14	1162055	161.3	150
14	1163140	161.5	150
14	1163153	161.5	160
14	1165058	161.884	20
14	1166182	162.086	30
14	1166362	162.1	40
14	1167625	162.3	50
14	1168718	162.5	60
14	1169821	162.7	70
14	1170916	162.9	80
14	1171811	163.1	90
14	1173074	163.3	100
14	1174271	163.5	110
14	1175358	163.7	120
14	1176142	163.9	130
14	1177492	164.1	140
14	1178394	164.3	150
14	1179700	164.5	150
14	1179713	164.5	160
14	1181738	164.883	20
14	1181892	164.9	30
14	1183192	165.1	40
14	1184287	165.3	50
14	1185071	165.5	60
14	1186373	165.7	70
14	1188424	166.086	80
14	1188576	166.1	90
14	1189519	166.3	100
14	1190849	166.5	110
14	1192044	166.7	120
14	1193141	166.9	130
14	1194282	167.1	140
14	1195377	167.3	150
14	1196456	167.5	150
14	1196469	167.5	160
14	1197995	167.885	20
14	1198143	167.9	30
14	1199763	168.1	40
14	1201623	168.576	50
14	1201623	168.576	60
14	1202741	168.7	70
14	1204288	168.9	80
14	1205435	169.1	90
14	1206526	169.3	100
14	1207306	169.5	110
14	1208636	169.7	120
14	1209833	169.9	130
14	1210970	170.1	140
14	1211823	170.3	150
14	1213072	170.5	150
14	1213085	170.5	160
14	1214310	170.7	20
14	1215401	170.9	30
14	1216540	171.1	40
14	1217633	171.3	50
14	1218732	171.5	60
14	1219829	171.7	70
14	1220924	171.9	80
14	1221750	172.1	90
14	1223076	172.3	100
14	1224271	172.5	110
14	1225366	172.7	120
14	1226459	172.9	130
14	1227602	173.1	140
14	1228697	173.3	150
14	1229778	173.5	150
14	1230613	173.688	10
14	1230757	173.7	20
14	1232019	173.9	30
14	1233162	174.1	40
14	1234966	174.485	50
14	1235120	174.5	60
14	1236487	174.7	70
14	1237584	174.9	80
14	1238723	175.1	90
14	1239814	175.3	100
14	1240564	175.5	110
14	1241320	175.7	120
14	1242072	175.9	130
14	1243332	176.285	140
14	1243464	176.3	150
14	1244379	176.5	150
14	1246020	177.578	150
14	1246020	177.578	160
14	1246020	177.578	170
14	1250935	179.141	180
14	1250935	179.141	190
14	1250935	179.141	200
14	1254865	179.327	210
14	1254865	179.327	220
14	1254865	179.327	230
14	1254865	179.327	240
14	1254865	179.327	250
14	1254865	179.327	260
14	1254865	179.327	270
14	1254865	179.327	280
14	1254865	179.327	290
14	1254865	179.327	300
14	1258239	179.5	300
14	1258251	179.5	310
14	1262843	179.7	320
14	1266197	179.9	330
14	1268044	180.1	340
14	1269322	180.3	350
14	1272467	180.5	360
14	1274956	180.7	370
14	1280622	180.9	380
14	1282727	181.1	390
14	1287532	181.3	400
14	1289999	181.5	410
14	1293986	181.884	420
14	1294205	181.9	430
14	1296208	182.1	440
14	1298017	182.3	160
14	1299784	182.5	160
14	1299796	182.5	170
14	1301611	182.7	110
14	1303162	182.9	120
14	1304679	183.1	130
14	1306938	183.3	140
14	1308839	183.5	150
14	1310626	183.7	160
14	1312425	183.9	120
14	1314011	184.1	130
14	1315174	184.3	140
14	1317019	184.5	150
14	1319636	184.7	160
14	1321490	184.9	150
14	1323036	185.1	160
14	1324845	185.3	150
14	1326608	185.5	150
14	1326620	185.5	160
14	1328115	185.7	110
14	1330491	185.9	120
14	1332123	186.1	130
14	1333574	186.3	140
14	1335014	186.5	150
14	1336443	186.7	160
14	1337582	186.9	120
14	1341611	188.3	90
14	1341611	188.3	100
14	1341611	188.3	110
14	1341611	188.3	120
14	1341611	188.3	130
14	1346940	188.5	130
14	1348183	188.594	80
14	1348183	188.594	90
14	1348183	188.594	100
14	1352560	188.988	110
14	1352560	188.988	120
14	1353323	189.1	130
14	1355211	189.3	140
14	1356939	189.5	150
14	1358386	189.7	160
14	1359514	189.9	170
14	1361295	190.1	180
14	1362777	190.3	190
14	1363920	190.5	200
14	1365213	190.7	210
14	1366775	190.9	200
14	1368640	191.1	210
14	1369788	191.3	170
14	1371209	191.5	170
14	1371220	191.5	180
14	1372913	191.7	110
14	1375469	192.189	120
14	1375469	192.189	130
14	1376104	192.3	140
14	1377963	192.5	150
14	1379722	192.7	160
14	1381536	192.9	120
14	1383292	193.1	130
14	1384728	193.3	140
14	1385899	193.5	150
14	1387427	193.7	160
14	1388787	193.9	150
14	1390305	194.1	160
14	1392024	194.3	150
14	1393462	194.5	150
14	1393473	194.5	160
14	1394918	194.7	110
14	1396372	194.9	120
14	1397854	195.1	130
14	1398999	195.3	140
14	1400290	195.5	150
14	1401836	195.7	160
14	1403670	195.9	120
14	1405162	196.1	130
14	1406317	196.3	140
14	1407858	196.5	150
14	1411237	196.985	140
14	1411237	196.985	150
14	1412073	197.1	160
14	1413739	197.3	150
14	1415363	197.5	150
14	1415375	197.5	160
14	1416833	197.7	110
16	1248521	178.684	150
16	1249017	179.097	160
16	1258455	179.502	170
16	1258455	179.502	180
16	1266574	179.909	190
16	1270084	180.317	200
16	1276915	180.732	210
16	1276915	180.732	220
16	1276915	180.732	230
16	1276915	180.732	240
16	1276915	180.732	250
16	1283568	181.139	260
16	1283568	181.139	270
16	1283568	181.139	280
16	1283568	181.139	290
16	1283568	181.139	300
16	1283568	181.139	310
16	1283568	181.139	320
16	1283568	181.139	330
16	1283568	181.139	340
16	1283568	181.139	350
16	1283568	181.139	360
16	1283568	181.139	370
16	1283568	181.139	380
16	1290914	181.546	390
16	1290914	181.546	400
16	1290914	181.546	410
16	1292258	181.7	410
16	1292272	181.7	420
16	1294208	181.9	430
16	1296211	182.1	440
16	1298020	182.3	160
16	1299799	182.5	170
16	1301614	182.7	180
16	1303165	182.9	120
16	1304682	183.1	130
16	1306941	183.3	140
16	1308842	183.5	150
16	1310629	183.7	160
16	1312428	183.9	120
16	1317627	184.508	130
16	1317627	184.508	140
16	1317627	184.508	150
16	1319625	184.7	150
16	1319639	184.7	160
16	1321493	184.9	150
16	1323039	185.1	160
16	1328688	185.704	90
16	1328688	185.704	100
16	1328688	185.704	110
16	1330494	185.9	120
16	1332125	186.1	130
16	1333576	186.3	140
16	1335016	186.5	150
16	1339345	187.7	100
16	1342410	188.31	70
16	1342410	188.31	80
16	1342410	188.31	90
16	1342410	188.31	100
16	1342410	188.31	110
16	1342410	188.31	120
16	1342410	188.31	130
16	1342410	188.31	140
16	1342410	188.31	150
16	1346953	188.5	160
16	1349844	188.7	110
16	1351590	188.9	120
16	1353325	189.1	130
16	1355213	189.3	140
16	1356941	189.5	150
16	1359965	189.908	160
16	1359965	189.908	170
16	1361297	190.1	180
16	1362779	190.3	190
16	1363922	190.5	200
16	1365202	190.7	200
16	1365215	190.7	210
16	1366777	190.9	200
16	1370253	191.31	160
16	1371766	191.52	170
16	1371766	191.52	180
16	1372915	191.7	110
16	1374469	191.9	120
16	1375127	192.1	130
16	1376106	192.3	140
16	1377965	192.5	150
16	1379724	192.7	160
16	1381538	192.9	120
16	1383294	193.1	130
16	1384730	193.3	140
16	1385901	193.5	150
16	1387416	193.7	150
16	1387429	193.7	160
16	1388789	193.9	150
16	1390307	194.1	160
16	1392026	194.3	150
16	1393475	194.5	160
16	1394920	194.7	110
16	1396374	194.9	120
16	1397856	195.1	130
16	1399001	195.3	140
16	1400292	195.5	150
16	1401838	195.7	160
16	1403672	195.9	120
16	1405164	196.1	130
16	1406319	196.3	140
16	1407860	196.5	150
16	1409482	196.7	150
16	1409495	196.7	160
16	1410684	196.9	150
16	1412075	197.1	160
16	1413741	197.3	150
16	1415377	197.5	160
16	1416835	197.7	110
16	1417986	197.9	120
16	1419186	198.1	130
16	1423431	199.664	90
16	1423431	199.664	100
16	1423431	199.664	110
16	1423431	199.664	120
16	1423431	199.664	130
16	1425011	199.7	130
16	1427435	199.829	120
16	1427435	199.829	130
16	1427435	199.829	140
16	1429030	199.9	150
16	1431321	200.262	100
16	1431557	200.3	110
[...]
11	6997767	966.755	0.255
11	6999076	966.953	0.253
11	7000485	967.152	0.252
11	7002116	967.352	0.252
11	7003426	967.552	0.252
11	7004833	967.753	0.253
11	7006373	967.955	0.255
11	7007930	968.221	0.321
11	7008882	968.352	0.252
11	7010859	968.552	0.252
11	7012342	968.752	0.252
11	7013793	968.952	0.252
11	7015269	969.152	0.252
11	7016457	969.352	0.252
11	7017940	969.551	0.251
11	7019354	969.752	0.252
11	7021325	970.006	0.306
11	7022552	970.152	0.252
11	7023913	970.357	0.257
11	7025248	970.551	0.251
11	7027013	970.806	0.306
11	7028256	970.952	0.252
11	7029743	971.152	0.252
11	7030875	971.356	0.256
11	7031849	971.555	0.255
11	7033006	971.753	0.253
11	7034172	971.956	0.256
11	7035393	972.208	0.308
11	7036270	972.352	0.252
11	7037585	972.606	0.306
11	7038674	972.807	0.307
11	7039613	972.952	0.252
11	7040766	973.152	0.252
11	7041810	973.352	0.252
11	7043107	973.555	0.255
11	7044305	973.81	0.31
11	7045182	973.953	0.253
11	7046446	974.151	0.251
11	7047449	974.353	0.253
11	7048606	974.552	0.252
11	7049779	974.753	0.253
11	7050884	974.954	0.254
11	7052003	975.152	0.252
11	7052976	975.352	0.252
11	7054216	975.561	0.261
11	7055297	975.752	0.252
11	7056408	975.954	0.254
11	7057436	976.154	0.254
11	7058471	976.355	0.255
11	7059752	976.553	0.253
11	7060717	976.752	0.252
11	7061763	976.952	0.252
11	7063071	977.151	0.251
11	7064191	977.352	0.252
11	7065288	977.552	0.252
11	7066384	977.752	0.252
11	7067403	978.007	0.307
11	7068074	978.153	0.253
11	7069554	978.352	0.252
11	7070834	978.552	0.252
11	7071957	978.755	0.255
11	7073042	978.953	0.253
11	7074175	979.152	0.252
11	7075272	979.353	0.253
11	7076360	979.552	0.252
11	7077483	979.756	0.256
11	7078575	979.953	0.253
11	7079706	980.152	0.252
11	7080668	980.351	0.251
11	7081722	980.552	0.252
11	7083125	980.774	0.274
11	7084106	980.952	0.252
11	7085273	981.155	0.255
11	7086370	981.355	0.255
11	7087333	981.553	0.253
11	7088542	981.76	0.26
11	7089678	981.959	0.259
11	7090638	982.151	0.251
11	7091395	982.42	0.32
11	7091828	982.621	0.321
11	7092261	982.82	0.32
11	7092738	983.02	0.32
11	7093180	983.219	0.319
11	7093986	983.924	0.824
11	7094947	984.135	0.435
11	7094963	984.136	0.636
11	7094971	984.137	0.837
11	7096218	984.615	0.515
11	7096225	984.615	0.315
11	7096251	984.616	0.716
11	7096909	984.806	0.306
11	7097488	985.008	0.308
11	7097970	985.205	0.305
11	7098520	985.407	0.307
11	7099132	985.614	0.314
11	7099705	985.807	0.307
11	7100419	986.008	0.308
11	7101115	986.207	0.307
11	7101845	986.405	0.305
11	7102628	986.606	0.306
11	7103602	986.809	0.309
11	7104862	987.006	0.306
11	7106125	987.206	0.306
11	7107679	987.405	0.305
11	7115028	987.606	0.306
11	7118867	987.763	0.263
11	7120974	987.964	0.264
11	7122276	988.163	0.263
11	7123879	988.364	0.264
11	7125265	988.565	0.265
11	7126826	988.763	0.263
11	7128565	988.966	0.266
11	7130288	989.166	0.266
11	7131906	989.364	0.264
11	7133615	989.565	0.265
11	7138916	989.733	0.233
11	7144499	989.932	0.232
11	7146189	990.132	0.232
11	7148251	990.332	0.232
11	7149823	990.532	0.232
11	7151613	990.734	0.234
11	7153229	990.933	0.233
11	7155109	991.134	0.234
11	7156969	991.336	0.236
11	7159211	991.533	0.233
11	7161127	991.732	0.232
11	7163195	991.934	0.234
11	7165184	992.136	0.236
11	7167268	992.336	0.236
11	7170593	992.532	0.232
11	7174583	992.732	0.232
11	7176820	992.933	0.233
11	7178887	993.133	0.233
11	7180978	993.333	0.233
11	7183137	993.566	0.266
11	7185919	993.777	0.277
11	7187391	993.963	0.263
11	7191694	994.166	0.266
11	7193922	994.364	0.264
11	7194462	994.564	0.264
11	7194952	994.764	0.264
11	7197960	995.03	0.33
11	7199564	995.164	0.264
11	7203198	995.332	0.232
11	7205630	995.53	0.23
11	7207173	995.729	0.229
11	7208292	995.929	0.229
11	7210321	996.129	0.229
11	7211577	996.333	0.233
11	7212697	996.534	0.234
11	7214385	996.73	0.23
11	7216044	996.936	0.236
11	7217223	997.134	0.234
11	7218511	997.332	0.232
11	7219716	997.533	0.233
11	7221118	997.729	0.229
11	7223014	997.931	0.231
11	7225059	998.13	0.23
11	7226383	998.33	0.23
11	7227747	998.566	0.266
11	7228926	998.732	0.232
11	7230533	998.93	0.23
11	7232351	999.132	0.232
11	7233791	999.33	0.23
11	7235229	999.529	0.229
11	7236681	999.731	0.231
11	7237998	999.93	0.23
11	7239194	1000.132	0.232
11	7240664	1000.329	0.229
11	7242539	1000.532	0.232
11	7243850	1000.729	0.229
11	7245006	1000.932	0.232
11	7246538	1001.129	0.229
11	7248401	1001.331	0.231
11	7249832	1001.529	0.229
11	7251165	1001.731	0.231
11	7252292	1001.93	0.23
11	7253827	1002.129	0.229
11	7255668	1002.329	0.229
11	7257134	1002.532	0.232
11	7258552	1002.731	0.231
11	7259886	1002.93	0.23
11	7261062	1003.131	0.231
11	7262432	1003.329	0.229
11	7263981	1003.529	0.229
11	7265833	1003.73	0.23
11	7267319	1003.929	0.229
11	7268820	1004.129	0.229
11	7270269	1004.33	0.23
11	7271708	1004.529	0.229
11	7273053	1004.732	0.232
11	7274156	1004.929	0.229
11	7275622	1005.141	0.241
11	7277342	1005.365	0.265
11	7278538	1005.533	0.233
11	7280102	1005.731	0.231
11	7281906	1005.929	0.229
11	7283404	1006.13	0.23
11	7284848	1006.33	0.23
11	7286290	1006.529	0.229
11	7287622	1006.729	0.229
11	7289063	1006.931	0.231
11	7290693	1007.129	0.229
11	7292135	1007.329	0.229
11	7293576	1007.529	0.229
11	7295012	1007.729	0.229
11	7296459	1007.929	0.229
11	7297952	1008.13	0.23
11	7299292	1008.333	0.233
11	7300709	1008.532	0.232
11	7302294	1008.732	0.232
11	7303728	1008.931	0.231
11	7305212	1009.132	0.232
11	7306653	1009.33	0.23
11	7308114	1009.531	0.231
11	7309554	1009.732	0.232
11	7310752	1009.929	0.229
11	7311635	1010.129	0.229
11	7312815	1010.33	0.23
11	7314698	1010.529	0.229
11	7316421	1010.729	0.229
11	7317692	1010.931	0.231
11	7319249	1011.129	0.229
11	7321163	1011.329	0.229
11	7322733	1011.529	0.229
11	7324174	1011.729	0.229
11	7325614	1011.93	0.23
11	7327093	1012.129	0.229
11	7328328	1012.333	0.233
11	7329145	1012.53	0.23
11	7330313	1012.729	0.229
11	7332206	1012.929	0.229
11	7333995	1013.129	0.229
11	7335639	1013.329	0.229
11	7337192	1013.529	0.229
11	7338783	1013.73	0.23
11	7340222	1013.93	0.23
11	7341609	1014.132	0.232
11	7342714	1014.329	0.229
11	7344212	1014.529	0.229
11	7346042	1014.729	0.229
11	7347375	1014.929	0.229
11	7348446	1015.13	0.23
11	7349247	1015.33	0.23
11	7350744	1015.529	0.229
11	7351883	1015.729	0.229
11	7352991	1015.93	0.23
11	7354014	1016.133	0.233
11	7356891	1017.732	1.432
11	7356896	1017.732	1.232
11	7356939	1017.734	1.634
11	7356944	1017.734	1.034
11	7357270	1017.764	0.864
11	7357274	1017.764	0.664
11	7357281	1017.764	0.464
11	7359535	1017.994	0.294
11	7359557	1017.996	0.496
11	7361249	1018.132	0.232
11	7363156	1018.332	0.232
11	7364044	1018.532	0.232
11	7365016	1018.733	0.233
11	7366463	1018.933	0.233
11	7367827	1019.165	0.265
11	7368966	1019.364	0.264
11	7370191	1019.532	0.232
11	7373169	1019.732	0.232
11	7374953	1019.932	0.232
48	7098081	985.289	100
48	7098593	985.443	100
48	7099042	985.591	100
48	7099506	985.738	100
48	7099850	985.886	100
48	7100484	986.034	100
48	7101019	986.186	100
48	7101592	986.333	100
48	7102054	986.481	100
48	7102718	986.628	100
48	7103300	986.776	110
48	7104259	986.932	120
48	7105128	987.08	130
48	7106221	987.227	140
48	7107227	987.376	150
48	7107227	987.376	160
48	7110780	987.526	170
48	7110780	987.526	180
48	7110780	987.526	190
48	7110780	987.526	200
48	7110780	987.526	210
48	7110780	987.526	220
48	7110780	987.526	230
48	7110780	987.526	240
48	7116292	987.675	250
48	7116292	987.675	260
48	7116292	987.675	270
48	7116292	987.675	280
48	7117304	987.7	290
48	7120443	987.9	300
48	7121521	988.1	310
48	7123143	988.3	310
48	7123156	988.3	320
48	7124574	988.5	330
48	7126114	988.7	340
48	7127787	988.9	350
48	7129444	989.1	310
48	7131107	989.3	320
48	7132836	989.5	310
48	7137726	989.7	320
48	7143936	989.9	330
48	7145396	990.1	340
48	7147512	990.3	350
48	7150635	990.647	360
48	7150946	990.7	370
48	7152541	990.9	380
48	7154468	991.1	390
48	7156159	991.3	390
48	7156172	991.3	400
48	7158485	991.5	410
48	7160221	991.7	370
48	7162434	991.9	380
48	7164244	992.1	360
48	7166531	992.3	370
48	7172995	992.678	380
48	7173672	992.7	390
48	7176051	992.9	400
48	7178156	993.1	410
48	7180149	993.3	420
48	7182249	993.5	430
48	7184696	993.7	440
48	7187022	993.9	450
48	7190049	994.1	460
48	7193587	994.3	460
48	7193599	994.3	470
48	7194174	994.5	480
48	7194669	994.7	150
48	7195566	994.9	160
48	7198797	995.1	160
48	7202361	995.3	90
48	7204928	995.5	100
48	7207513	995.847	110
48	7207747	995.9	120
48	7209531	996.1	130
48	7211895	996.447	140
48	7212131	996.5	150
48	7213679	996.7	160
48	7215465	996.9	170
48	7216694	997.1	180
48	7217943	997.3	180
48	7217955	997.3	190
48	7219281	997.5	200
48	7221597	997.847	210
48	7222335	997.9	220
48	7224393	998.1	230
48	7225854	998.3	70
48	7227000	998.5	80
48	7228268	998.7	90
48	7229820	998.9	100
48	7231644	999.1	110
48	7233138	999.3	120
48	7234582	999.5	130
48	7236022	999.7	140
48	7237456	999.9	150
48	7238663	1000.1	160
48	7240018	1000.3	160
48	7240030	1000.3	170
48	7241862	1000.5	180
48	7243309	1000.7	150
48	7244473	1000.9	160
48	7245907	1001.1	160
48	7247738	1001.3	60
48	7249184	1001.5	70
48	7250622	1001.7	80
48	7251777	1001.9	90
48	7253197	1002.1	100
48	7255017	1002.3	110
48	7256467	1002.5	120
48	7257901	1002.7	130
48	7259339	1002.9	140
48	7260544	1003.1	150
48	7261905	1003.3	150
48	7261917	1003.3	160
48	7263461	1003.5	160
48	7265036	1003.7	150
48	7266667	1003.9	160
48	7268169	1004.1	160
48	7269616	1004.3	60
48	7271054	1004.5	70
48	7272500	1004.7	80
48	7273648	1004.9	90
48	7275069	1005.1	100
48	7276601	1005.3	110
48	7277875	1005.5	120
48	7279427	1005.7	130
48	7281219	1005.9	140
48	7282749	1006.1	150
48	7284174	1006.3	150
48	7284186	1006.3	160
48	7285638	1006.5	160
48	7288047	1006.847	150
48	7288358	1006.9	160
48	7290038	1007.1	160
48	7291489	1007.3	60
48	7292929	1007.5	70
48	7294365	1007.7	80
48	7295809	1007.9	90
48	7297299	1008.1	100
48	7299707	1008.452	110
48	7300007	1008.5	120
48	7301625	1008.7	130
48	7303071	1008.9	140
48	7304549	1009.1	150
48	7305980	1009.3	150
48	7305992	1009.3	160
48	7307448	1009.5	160
48	7308895	1009.7	150
48	7310333	1009.9	160
48	7311256	1010.1	160
48	7312319	1010.3	60
48	7313819	1010.5	70
48	7315852	1010.7	80
48	7318416	1011.048	90
48	7318697	1011.1	100
48	7320420	1011.3	110
48	7322082	1011.5	120
48	7323526	1011.7	130
48	7324960	1011.9	140
48	7326446	1012.1	150
48	7327875	1012.3	150
48	7327887	1012.3	160
48	7328764	1012.5	160
48	7329824	1012.7	150
48	7331333	1012.9	160
48	7333415	1013.1	170
48	7336194	1013.447	60
48	7336506	1013.5	70
48	7338126	1013.7	80
48	7339568	1013.9	90
48	7341054	1014.1	100
48	7342200	1014.3	110
48	7343583	1014.5	120
48	7345396	1014.7	130
48	7346845	1014.9	140
48	7348044	1015.1	150
48	7348858	1015.3	150
48	7348869	1015.3	160
48	7350089	1015.5	170
48	7351377	1015.7	180
48	7352475	1015.9	190
48	7353616	1016.1	160
48	7355471	1017.7	170
48	7355471	1017.7	180
48	7355471	1017.7	190
48	7355471	1017.7	200
48	7355471	1017.7	210
48	7355471	1017.7	220
48	7355471	1017.7	230
48	7359212	1017.931	240
48	7359212	1017.931	250
48	7360692	1018.1	260
48	7362772	1018.3	260
48	7362783	1018.3	270
48	7364766	1018.732	140
48	7364766	1018.732	150
48	7365612	1018.9	160
48	7367465	1019.1	140
48	7368685	1019.3	150
48	7369773	1019.5	160
48	7372641	1019.7	170
48	7374225	1019.9	180
49	7099829	985.853	100
49	7101224	986.246	100
49	7102729	986.634	100
49	7104948	987.024	100
49	7107780	987.416	100
49	7119542	987.809	100
49	7122521	988.201	100
49	7124561	988.5	100
49	7125445	988.59	100
49	7128676	988.984	100
49	7131969	989.374	50
49	7140034	989.767	40
49	7146286	990.157	50
49	7149860	990.547	60
49	7153246	990.937	70
49	7156813	991.326	80
49	7158471	991.5	80
49	7160839	991.716	40
49	7160839	991.716	50
49	7164841	992.107	30
49	7164841	992.107	40
49	7168360	992.5	50
49	7168360	992.5	60
49	7168360	992.5	70
49	7168360	992.5	80
49	7168360	992.5	90
49	7168360	992.5	100
49	7168360	992.5	110
49	7168360	992.5	120
49	7168360	992.5	130
49	7168360	992.5	140
49	7168360	992.5	150
49	7168360	992.5	160
49	7168360	992.5	170
49	7175764	992.891	180
49	7175764	992.891	190
49	7179852	993.284	200
49	7179852	993.284	210
49	7183881	993.676	220
49	7183881	993.676	230
49	7183881	993.676	240
49	7183881	993.676	250
49	7183881	993.676	260
49	7183881	993.676	270
49	7187722	994.065	280
49	7187722	994.065	290
49	7187722	994.065	300
49	7187722	994.065	310
49	7187722	994.065	320
49	7187722	994.065	330
49	7187722	994.065	340
49	7187722	994.065	350
49	7187722	994.065	360
49	7187722	994.065	370
49	7187722	994.065	380
49	7187722	994.065	390
49	7187722	994.065	400
49	7187722	994.065	410
49	7187722	994.065	420
49	7187722	994.065	430
49	7194162	994.5	430
49	7196095	994.99	100
49	7196095	994.99	110
49	7196095	994.99	120
49	7196095	994.99	130
49	7196095	994.99	140
49	7196095	994.99	150
49	7196095	994.99	160
49	7204676	995.492	80
49	7204676	995.492	90
49	7204929	995.5	100
49	7206718	995.7	110
49	7207748	995.9	120
49	7209532	996.1	130
49	7213427	996.693	140
49	7213427	996.693	150
49	7213680	996.7	160
49	7217819	997.29	170
49	7219269	997.5	170
49	7220128	997.68	180
49	7220128	997.68	190
49	7220128	997.68	200
49	7220530	997.7	210
49	7222336	997.9	220
49	7224394	998.1	210
49	7225855	998.3	70
49	7229568	998.891	80
49	7229568	998.891	90
49	7229821	998.9	100
49	7231645	999.1	110
49	7233139	999.3	120
49	7234583	999.5	130
49	7236023	999.7	140
49	7237457	999.9	150
49	7238664	1000.1	160
49	7240031	1000.3	170
49	7241850	1000.5	170
49	7241863	1000.5	180
49	7243310	1000.7	150
49	7244474	1000.9	160
49	7245908	1001.1	160
49	7247739	1001.3	60
49	7249185	1001.5	70
49	7250623	1001.7	80
49	7251778	1001.9	90
49	7253198	1002.1	100
49	7255018	1002.3	110
49	7256468	1002.5	120
49	7257902	1002.7	130
49	7259340	1002.9	140
49	7260545	1003.1	150
49	7261918	1003.3	160
49	7263449	1003.5	150
49	7263462	1003.5	160
49	7265037	1003.7	150
49	7266668	1003.9	160
49	7268170	1004.1	160
49	7269617	1004.3	60
49	7271055	1004.5	70
49	7272501	1004.7	80
49	7273649	1004.9	90
49	7275070	1005.1	100
49	7279175	1005.698	110
49	7279175	1005.698	120
49	7279428	1005.7	130
49	7281220	1005.9	140
49	7282750	1006.1	150
49	7284187	1006.3	160
49	7285626	1006.5	150
49	7285639	1006.5	160
49	7287088	1006.7	150
49	7288359	1006.9	160
49	7290039	1007.1	160
49	7291490	1007.3	60
49	7292930	1007.5	70
49	7294366	1007.7	80
49	7295810	1007.9	90
49	7297300	1008.1	100
49	7298738	1008.3	110
49	7300008	1008.5	120
49	7301626	1008.7	130
49	7303072	1008.9	140
49	7304550	1009.1	150
49	7305993	1009.3	160
49	7307436	1009.5	150
49	7307449	1009.5	160
49	7308896	1009.7	150
49	7310334	1009.9	160
49	7311257	1010.1	160
49	7312320	1010.3	60
49	7313820	1010.5	70
49	7315853	1010.7	80
49	7317287	1010.9	90
49	7318698	1011.1	100
49	7320421	1011.3	110
49	7322083	1011.5	120
49	7323527	1011.7	130
49	7324961	1011.9	140
49	7326447	1012.1	150
49	7327888	1012.3	160
49	7328752	1012.5	150
49	7328765	1012.5	160
49	7329825	1012.7	150
49	7331334	1012.9	160
49	7333416	1013.1	170
49	7335015	1013.3	60
49	7336507	1013.5	70
49	7338127	1013.7	80
49	7339569	1013.9	90
49	7341055	1014.1	100
49	7342201	1014.3	110
49	7343584	1014.5	120
49	7345397	1014.7	130
49	7346846	1014.9	140
49	7348045	1015.1	150
49	7348870	1015.3	160
49	7350078	1015.5	160
49	7350090	1015.5	170
49	7351378	1015.7	180
49	7352476	1015.9	190
49	7362061	1018.236	160
49	7362061	1018.236	170
49	7363778	1018.5	50
49	7364106	1018.569	40
49	7365966	1018.903	50
49	7365966	1018.903	60
49	7365966	1018.903	70
49	7367925	1019.236	50
49	7367925	1019.236	60
49	7367925	1019.236	70
49	7370326	1019.569	80
49	7370326	1019.569	90
49	7370326	1019.569	100
49	7370326	1019.569	110
49	7370326	1019.569	120
49	7370326	1019.569	130
49	7370326	1019.569	140
49	7370326	1019.569	150
49	7374551	1019.908	160
49	7374551	1019.908	170
49	7374551	1019.908	180
50	7100565	986.085	100
50	7101608	986.339	100
50	7102582	986.595	100
50	7103789	986.851	100
50	7105594	987.107	100
50	7107179	987.362	100
50	7115106	987.618	100
50	7120279	987.876	100
50	7122150	988.132	100
50	7124004	988.385	100
50	7125701	988.64	110
50	7127641	988.895	120
50	7127774	988.9	120
50	7130028	989.149	80
50	7132230	989.409	90
50	7134293	989.664	80
50	7134293	989.664	90
50	7134293	989.664	100
50	7134293	989.664	110
50	7134293	989.664	120
50	7134293	989.664	130
50	7134293	989.664	140
50	7134293	989.664	150
50	7134293	989.664	160
50	7134293	989.664	170
50	7134293	989.664	180
50	7134293	989.664	190
50	7134293	989.664	200
50	7134293	989.664	210
50	7134293	989.664	220
50	7134293	989.664	230
50	7134293	989.664	240
50	7134293	989.664	250
50	7134293	989.664	260
50	7134293	989.664	270
50	7134293	989.664	280
50	7134293	989.664	290
50	7134293	989.664	300
50	7134293	989.664	310
50	7137728	989.7	320
50	7143938	989.9	330
50	7145398	990.1	340
50	7147514	990.3	350
50	7149279	990.5	360
50	7150948	990.7	370
50	7152543	990.9	380
50	7154470	991.1	390
50	7156174	991.3	400
50	7158487	991.5	410
50	7160223	991.7	370
50	7162421	991.9	370
50	7162436	991.9	380
50	7164246	992.1	360
50	7166533	992.3	370
50	7168261	992.5	380
50	7173674	992.7	390
50	7176053	992.9	400
50	7178158	993.1	410
50	7180151	993.3	420
50	7182251	993.5	430
50	7195554	994.9	90
50	7197189	995.021	90
50	7197189	995.021	100
50	7197189	995.021	110
50	7197189	995.021	120
50	7197189	995.021	130
50	7201818	995.279	140
50	7201818	995.279	150
50	7201818	995.279	160
50	7202363	995.3	170
50	7204930	995.5	100
50	7208464	995.959	110
50	7208464	995.959	120
50	7209533	996.1	130
50	7211155	996.3	140
50	7212133	996.5	150
50	7213681	996.7	160
50	7215467	996.9	170
50	7216696	997.1	180
50	7217957	997.3	190
50	7219283	997.5	200
50	7220531	997.7	210
50	7222323	997.9	210
50	7222337	997.9	220
50	7224395	998.1	210
50	7227436	998.557	70
50	7227436	998.557	80
50	7228270	998.7	90
50	7229822	998.9	100
50	7231646	999.1	110
50	7233140	999.3	120
50	7234584	999.5	130
50	7236024	999.7	140
50	7237458	999.9	150
50	7238665	1000.1	160
50	7240032	1000.3	170
50	7241864	1000.5	180
50	7243311	1000.7	190
50	7244461	1000.9	150
50	7244475	1000.9	160
50	7245909	1001.1	160
50	7247740	1001.3	170
50	7249186	1001.5	70
50	7250624	1001.7	80
50	7251779	1001.9	90
50	7253199	1002.1	100
50	7255019	1002.3	110
50	7256469	1002.5	120
50	7257903	1002.7	130
50	7259341	1002.9	140
50	7260546	1003.1	150
50	7264100	1003.555	150
50	7264100	1003.555	160
50	7265038	1003.7	150
50	7266655	1003.9	150
50	7266669	1003.9	160
50	7268171	1004.1	160
50	7269618	1004.3	170
50	7271056	1004.5	70
50	7272502	1004.7	80
50	7273650	1004.9	90
50	7277035	1005.356	100
50	7277035	1005.356	110
50	7277877	1005.5	120
50	7279429	1005.7	130
50	7281221	1005.9	140
50	7282751	1006.1	150
50	7284188	1006.3	160
50	7285640	1006.5	160
50	7287089	1006.7	150
50	7288346	1006.9	150
50	7288360	1006.9	160
50	7290040	1007.1	160
50	7291491	1007.3	170
50	7292931	1007.5	70
50	7294367	1007.7	80
50	7295811	1007.9	90
50	7297301	1008.1	100
50	7298739	1008.3	110
50	7300009	1008.5	120
50	7301627	1008.7	130
50	7303073	1008.9	140
50	7304551	1009.1	150
50	7305994	1009.3	160
50	7307450	1009.5	160
50	7308897	1009.7	150
50	7310320	1009.9	150
50	7314182	1010.513	40
50	7314182	1010.513	50
50	7314182	1010.513	60
50	7314182	1010.513	70
50	7315854	1010.7	80
50	7319509	1011.169	90
50	7319509	1011.169	100
50	7320422	1011.3	110
50	7322084	1011.5	120
50	7323528	1011.7	130
50	7324962	1011.9	140
50	7326448	1012.1	150
50	7331321	1012.9	120
50	7331817	1012.915	130
50	7331817	1012.915	140
50	7331817	1012.915	150
50	7334221	1013.171	160
50	7334221	1013.171	170
50	7335016	1013.3	180
50	7336508	1013.5	70
50	7338128	1013.7	80
50	7339570	1013.9	90
50	7341056	1014.1	100
50	7342202	1014.3	110
50	7343585	1014.5	120
50	7345398	1014.7	130
50	7346847	1014.9	140
50	7349348	1015.355	150
50	7349348	1015.355	160
50	7350091	1015.5	170
50	7351379	1015.7	180
50	7352464	1015.9	180
50	7352477	1015.9	190
50	7353618	1016.1	160
50	7355473	1017.7	170
50	7355473	1017.7	180
50	7355473	1017.7	190
50	7355473	1017.7	200
50	7359721	1018.034	210
50	7359721	1018.034	220
50	7359721	1018.034	230
50	7359721	1018.034	240
50	7359721	1018.034	250
50	7360694	1018.1	260
50	7362785	1018.3	270
50	7363791	1018.5	160
50	7364521	1018.7	150
50	7365601	1018.9	150
50	7365614	1018.9	160
50	7369299	1019.433	140
50	7369299	1019.433	150
50	7369775	1019.5	160
50	7372643	1019.7	170
50	7374227	1019.9	180

