version 2
run FastSMR-9-20181114-02:25:10-7180
attr configname FastSMR
attr datetime 20181114-02:25:10
attr experiment FastSMR
attr inifile omnetpp.ini
attr iterationvars "$GCCycleForLatency=10000, $GC=true"
attr iterationvarsf GCCycleForLatency=10000,GC=true-
attr measurement "$GCCycleForLatency=10000, $GC=true"
attr network abstract.FastSMRModel
attr processid 7180
attr repetition 0
attr replication #0
attr resultdir results
attr runnumber 9
attr seedset 9
itervar GC true
itervar GCCycleForLatency 10000
param FastSMRModel.client_num 10
param FastSMRModel.logical_computer "\"client[0]\""
param **.globalParameters.max_distance 20000000m
param **.globalParameters.fix_latency 100ms
param **.globalParameters.latency_gen_mode 0
param **.globalStatistics.cool_down 10s
param **.underlayConfigurator.lcType "\"abstract.LogicComputer\""
param **.underlayConfigurator.lcName "\"logicComputer\""
param **.underlayConfigurator.nodeType "\"hosts.Node\""
param **.underlayConfigurator.nodeName "\"node\""
param **.underlayConfigurator.clientType "\"hosts.Client\""
param **.underlayConfigurator.clientName "\"client\""
param **.client[*].ctrl.initJoinTime 3000ms
param **.client[*].ctrl.loadCycle 500ms
param **.client[*].ctrl.discoveryCycle 1000ms
param **.client[*].ctrl.deviate false
param **.node[*].IPInterface "\"IPAddress\""
param **.node[*].HBcycle 1000ms
param **.node[*].ctrl.roundCycle 200ms
param **.node[*].ctrl.cycleStart 4000ms
param **.node[*].ctrl.GCCycle 10000ms
param **.node[*].ctrl.GC true
param **.rendezvous.ctrl.cycle 1000ms
param **.rendezvous.ctrl.starttime 5000ms
param **.rendezvous.replicaNumPolicyModule "\"replication\""
param **.rendezvous.replication.threshold 3
param **.rendezvous.replication.max_replica 5
param **.clock.err_mean 74ms
param **.clock.err_std 175ms
param **.pktLossRate 0.01
param **.Copt 200000000mps
param **.BW 1.04858e6bps
param **.MTU 12144b
param **.jitter_mu 1
param **.jitter_sigma 0.5
param **.Dmin 50ms
param **.jitter 50ms
param **.churnGeneratorModule "\"churnGenerator\""
param **.churnGenerator.stable_fraction 0.2
param **.churnGenerator.stable_mean 9000000ms
param **.churnGenerator.sessionLenShape 0.38
param **.churnGenerator.sessionLenScale 42.4
param **.churnGenerator.sessionLenMin 10s
param **.churnGenerator.sessionLength 30min
param **.churnGenerator.scan_cycle 100ms
param **.churnGenerator.life_span_min 10s
param **.churnGenerator.life_span_max 200s
param **.coordinator.locXMax 750
param **.coordinator.locYMax 550
param **.coordinator.locXMin 200
param **.coordinator.locYMin 50
param **.coordinator.LCXMax 1050
param **.coordinator.LCYMax 550
param **.coordinator.LCXMin 850
param **.coordinator.LCYMin 50
param **.coordinator.percept_radius 1000

vector 0 FastSMRModel.client[9] IndividualInteractionLatency:vector ETV
attr source latency
attr title "Individual Interaction Latency, vector"
vector 1 FastSMRModel.logicComputer[0].node[0] QdLengthVector:vector ETV
attr source QdLength
attr title "Qd Length, vector"
vector 2 FastSMRModel.logicComputer[0].node[1] QdLengthVector:vector ETV
attr source QdLength
attr title "Qd Length, vector"
vector 3 FastSMRModel.logicComputer[0].node[2] QdLengthVector:vector ETV
attr source QdLength
attr title "Qd Length, vector"
vector 4 FastSMRModel.logicComputer[0].node[3] QdLengthVector:vector ETV
attr source QdLength
attr title "Qd Length, vector"
vector 5 FastSMRModel.logicComputer[0].node[4] QdLengthVector:vector ETV
attr source QdLength
attr title "Qd Length, vector"
vector 6 FastSMRModel.client[2] IndividualInteractionLatency:vector ETV
attr source latency
attr title "Individual Interaction Latency, vector"
vector 7 FastSMRModel.client[4] IndividualInteractionLatency:vector ETV
attr source latency
attr title "Individual Interaction Latency, vector"
vector 8 FastSMRModel.client[7] IndividualInteractionLatency:vector ETV
attr source latency
attr title "Individual Interaction Latency, vector"
vector 9 FastSMRModel.client[5] IndividualInteractionLatency:vector ETV
attr source latency
attr title "Individual Interaction Latency, vector"
vector 10 FastSMRModel.client[6] IndividualInteractionLatency:vector ETV
attr source latency
attr title "Individual Interaction Latency, vector"
vector 11 FastSMRModel.client[0] IndividualInteractionLatency:vector ETV
attr source latency
attr title "Individual Interaction Latency, vector"
vector 12 FastSMRModel.client[1] IndividualInteractionLatency:vector ETV
attr source latency
attr title "Individual Interaction Latency, vector"
vector 13 FastSMRModel.client[3] IndividualInteractionLatency:vector ETV
attr source latency
attr title "Individual Interaction Latency, vector"
vector 14 FastSMRModel.client[8] IndividualInteractionLatency:vector ETV
attr source latency
attr title "Individual Interaction Latency, vector"
4	5593	10.1	30
4	7500	10.3	40
4	9289	10.5	50
4	11068	10.7	60
4	12845	10.9	70
4	14529	11.1	80
4	16273	11.3	90
4	18015	11.5	100
4	19481	11.7	110
4	21245	11.9	120
4	22819	12.1	130
4	24541	12.3	140
4	26105	12.5	150
4	27837	12.7	160
4	29212	12.9	170
4	31933	13.1	180
4	34625	13.3	190
4	36418	13.5	200
4	37900	13.7	210
4	39880	13.9	220
4	41491	14.1	230
4	43067	14.3	240
4	44256	14.5	250
4	46286	14.7	260
4	48134	14.9	270
4	49912	15.1	280
4	51484	15.3	290
4	54045	15.5	290
4	54060	15.5	300
4	56078	15.7	310
4	58072	15.9	30
4	59856	16.1	40
4	61808	16.3	50
4	63603	16.5	60
4	68893	17.119	70
4	68893	17.119	80
4	68893	17.119	90
4	70443	17.3	100
4	72498	17.5	110
4	74403	17.7	120
4	76192	17.9	130
4	78019	18.1	140
4	79501	18.3	150
4	81491	18.5	160
4	83378	18.7	170
4	88732	19.321	180
4	88732	19.321	190
4	88732	19.321	200
4	90565	19.5	210
4	95115	20.12	220
4	95115	20.12	230
4	95115	20.12	240
4	96419	20.3	250
4	98927	20.5	260
4	100782	20.7	270
4	102873	20.9	280
4	104452	21.1	290
4	106424	21.3	300
4	108697	21.5	310
4	110303	21.7	320
4	112295	21.9	330
4	113937	22.1	340
4	115418	22.3	350
4	116443	22.5	360
4	119155	22.7	370
4	121450	22.9	380
4	123299	23.1	390
4	125072	23.3	400
4	126857	23.5	410
4	128640	23.7	420
4	130429	23.9	430
4	132264	24.1	440
4	137086	24.725	450
4	137086	24.725	460
4	137086	24.725	470
4	139187	24.9	480
4	140738	25.1	490
4	141896	25.3	500
4	143025	25.5	500
4	143040	25.5	510
4	146027	25.7	520
4	148574	25.9	60
4	150429	26.1	70
4	152204	26.3	80
4	153995	26.5	90
4	155770	26.7	100
4	157312	26.9	110
4	158621	27.1	120
4	160580	27.3	130
4	162685	27.5	140
4	164677	27.7	150
4	166362	27.9	160
4	168405	28.1	170
4	170300	28.3	180
4	171826	28.5	190
4	173300	28.7	200
4	175563	28.9	210
4	177540	29.1	220
4	179321	29.3	230
4	181088	29.5	240
4	182895	29.7	250
4	184676	29.9	260
4	189675	30.518	270
4	193390	30.939	280
4	193390	30.939	290
4	193390	30.939	300
4	193390	30.939	310
4	195082	31.1	320
4	196774	31.3	330
4	199037	31.5	340
4	200699	31.7	350
4	201978	31.9	360
4	204287	32.1	370
4	206431	32.3	380
4	208218	32.5	390
4	210001	32.7	400
4	211784	32.9	410
4	213607	33.1	420
4	215392	33.3	430
4	217191	33.5	440
4	218964	33.7	450
4	220751	33.9	460
4	222586	34.1	470
4	224369	34.3	480
4	225959	34.5	490
4	227954	34.7	500
4	229427	34.9	510
4	231463	35.1	520
4	233368	35.3	530
4	235145	35.5	530
4	235160	35.5	540
4	237011	35.7	550
4	238800	35.9	30
4	240627	36.1	40
4	242418	36.3	50
4	243890	36.5	60
4	245352	36.7	70
4	246618	36.9	80
4	249189	37.1	90
4	251428	37.3	100
4	252725	37.5	110
4	254928	37.7	120
4	256823	37.9	130
4	258652	38.1	140
4	260290	38.3	150
4	262219	38.5	160
4	263834	38.7	170
4	265796	38.9	180
4	267488	39.1	190
4	269181	39.3	200
4	270657	39.5	210
4	272912	39.7	220
4	274686	39.9	230
4	276509	40.1	240
4	278468	40.3	250
4	280270	40.5	260
4	282049	40.7	270
4	283518	40.9	280
4	289141	41.529	290
4	289141	41.529	300
4	289141	41.529	310
4	290951	41.7	320
4	296500	42.319	330
4	296500	42.319	340
4	296500	42.319	350
4	298237	42.5	360
4	299820	42.7	370
4	301105	42.9	380
4	303621	43.1	390
4	309143	43.719	400
4	309143	43.719	410
4	309143	43.719	420
4	310874	43.9	430
4	312776	44.1	440
4	314553	44.3	450
4	316077	44.5	460
4	317368	44.7	470
4	323357	45.324	480
4	323357	45.324	490
4	323357	45.324	500
4	325107	45.5	500
4	325122	45.5	510
4	326731	45.7	520
4	328840	45.9	40
4	330652	46.1	50
4	332140	46.3	60
4	333364	46.5	70
4	335895	46.7	80
4	341405	47.32	90
4	345076	47.737	100
4	345076	47.737	110
4	345076	47.737	120
4	345076	47.737	130
4	346860	47.9	140
4	352527	48.52	150
4	352527	48.52	160
4	355859	48.945	170
4	355859	48.945	180
4	355859	48.945	190
4	357769	49.1	200
4	359932	49.3	210
4	361735	49.5	220
4	363319	49.7	230
4	368939	50.319	240
4	368939	50.319	250
4	368939	50.319	260
4	370677	50.5	270
4	372529	50.7	280
4	374312	50.9	290
4	376141	51.1	300
4	377667	51.3	310
4	378992	51.5	320
4	381403	51.7	330
4	383329	51.9	340
4	385160	52.1	350
4	386644	52.3	360
4	388630	52.5	370
4	390338	52.7	380
4	392334	52.9	390
4	394153	53.1	400
4	395950	53.3	410
4	397733	53.5	420
4	399510	53.7	430
4	401108	53.9	440
4	403138	54.1	450
4	404933	54.3	460
4	410170	54.918	470
4	410170	54.918	480
4	410170	54.918	490
4	411761	55.1	500
4	413679	55.3	510
4	415729	55.5	510
4	415746	55.5	520
4	417597	55.7	530
4	422591	56.327	30
4	422591	56.327	40
4	422591	56.327	50
4	424584	56.5	60
4	426610	56.7	70
4	428051	56.9	80
4	430246	57.1	90
4	435449	57.718	100
4	435449	57.718	110
4	435449	57.718	120
4	437346	57.9	130
4	439112	58.1	140
4	441038	58.3	150
4	442574	58.5	160
4	444047	58.7	170
4	446303	58.9	180
4	448286	59.1	190
4	450073	59.3	200
4	451848	59.5	210
4	453637	59.7	220
4	455416	59.9	230
4	457245	60.1	240
4	459034	60.3	250
4	460829	60.5	260
4	462608	60.7	270
4	463937	60.9	280
4	466124	61.1	290
4	467840	61.3	300
4	469826	61.5	310
4	471621	61.7	320
4	473406	61.9	330
4	475235	62.1	340
4	477012	62.3	350
4	478811	62.5	360
4	480596	62.7	370
4	485700	63.321	380
4	485700	63.321	390
4	485700	63.321	400
4	487406	63.5	410
4	489499	63.7	420
4	490843	63.9	430
4	492039	64.1	440
4	494063	64.3	450
4	495967	64.5	460
4	497893	64.7	470
4	499579	64.9	480
4	505298	65.5	480
4	505997	65.524	490
4	505997	65.524	500
4	505997	65.524	510
4	507747	65.7	520
4	509611	65.9	50
4	511289	66.1	60
4	512968	66.3	70
4	514297	66.5	80
4	516432	66.7	90
4	518066	66.9	100
4	519840	67.1	110
4	521396	67.3	120
4	523457	67.5	130
4	525629	67.7	140
4	527735	67.9	150
4	529554	68.1	160
4	531351	68.3	170
4	533136	68.5	180
4	534919	68.7	190
4	536706	68.9	200
4	538224	69.1	210
4	540218	69.3	220
4	541866	69.5	230
4	543330	69.7	240
4	545587	69.9	250
4	546992	70.1	260
4	548146	70.3	270
4	550663	70.5	280
4	552647	70.7	290
4	554651	70.9	300
4	556582	71.1	310
4	558068	71.3	320
4	563219	71.925	330
2	5591	10.1	30
2	7498	10.3	40
2	9287	10.5	50
2	11066	10.7	60
2	12843	10.9	70
2	16042	11.287	80
2	16271	11.3	90
2	18013	11.5	100
2	19479	11.7	110
2	21243	11.9	120
2	22817	12.1	130
2	24539	12.3	140
2	26103	12.5	150
2	28996	12.881	160
2	31627	13.09	170
2	31931	13.1	180
2	34623	13.3	190
2	36416	13.5	200
2	37898	13.7	210
2	41145	14.081	220
2	41489	14.1	230
2	43065	14.3	240
2	44254	14.5	250
2	46284	14.7	260
2	48132	14.9	270
2	49910	15.1	280
2	51482	15.3	290
2	54043	15.5	290
2	54058	15.5	300
2	56076	15.7	20
2	58070	15.9	30
2	59854	16.1	40
2	61806	16.3	50
2	63601	16.5	60
2	66466	16.884	70
2	66656	16.9	80
2	68362	17.1	90
2	70441	17.3	100
2	72496	17.5	110
2	74401	17.7	120
2	76190	17.9	130
2	78017	18.1	140
2	79499	18.3	150
2	81489	18.5	160
2	83376	18.7	170
2	84906	18.9	180
2	86120	19.1	190
2	88059	19.3	200
2	92022	19.683	210
2	92236	19.7	220
2	93742	19.9	230
2	96195	20.283	240
2	96417	20.3	250
2	98925	20.5	260
2	100780	20.7	270
2	102871	20.9	280
2	104450	21.1	290
2	106422	21.3	300
2	108695	21.5	310
2	110301	21.7	320
2	112293	21.9	330
2	113935	22.1	340
2	116271	22.486	350
2	116441	22.5	360
2	119153	22.7	370
2	121448	22.9	380
2	123297	23.1	390
2	125070	23.3	400
2	126855	23.5	410
2	128638	23.7	420
2	130427	23.9	430
2	132262	24.1	440
2	133517	24.3	450
2	134343	24.5	460
2	138889	24.883	470
2	143023	25.5	470
2	144189	25.581	480
2	144189	25.581	490
2	144189	25.581	500
2	144189	25.581	510
2	146025	25.7	50
2	148572	25.9	60
2	150427	26.1	70
2	152202	26.3	80
2	153993	26.5	90
2	155768	26.7	100
2	158419	27.084	110
2	160346	27.282	120
2	160578	27.3	130
2	162683	27.5	140
2	164675	27.7	150
2	166360	27.9	160
2	168403	28.1	170
2	170298	28.3	180
2	171824	28.5	190
2	173298	28.7	200
2	175561	28.9	210
2	177538	29.1	220
2	179319	29.3	230
2	181086	29.5	240
2	182893	29.7	250
2	184674	29.9	260
2	187553	30.281	270
2	187775	30.3	280
2	189196	30.5	290
2	190654	30.7	300
2	192616	30.9	310
2	195080	31.1	320
2	196772	31.3	330
2	199035	31.5	340
2	201770	31.888	350
2	203989	32.081	360
2	204285	32.1	370
2	206429	32.3	380
2	208216	32.5	390
2	209999	32.7	400
2	211782	32.9	410
2	213605	33.1	420
2	215390	33.3	430
2	217189	33.5	440
2	218962	33.7	450
2	220749	33.9	460
2	222584	34.1	470
2	225739	34.482	480
2	225957	34.5	490
2	227952	34.7	500
2	229425	34.9	510
2	231461	35.1	520
2	233366	35.3	530
2	235143	35.5	530
2	235158	35.5	540
2	237009	35.7	20
2	238798	35.9	30
2	240625	36.1	40
2	242416	36.3	50
2	243888	36.5	60
2	245350	36.7	70
2	246616	36.9	80
2	249187	37.1	90
2	252535	37.481	100
2	252723	37.5	110
2	254926	37.7	120
2	256821	37.9	130
2	258650	38.1	140
2	260288	38.3	150
2	263608	38.682	160
2	263832	38.7	170
2	265794	38.9	180
2	267486	39.1	190
2	269179	39.3	200
2	270655	39.5	210
2	272910	39.7	220
2	274684	39.9	230
2	276507	40.1	240
2	278466	40.3	250
2	280268	40.5	260
2	282047	40.7	270
2	283516	40.9	280
2	285561	41.1	290
2	288244	41.488	300
2	288428	41.5	310
2	290949	41.7	320
2	293972	42.082	330
2	294174	42.1	340
2	295853	42.3	350
2	298235	42.5	360
2	300885	42.881	370
2	301103	42.9	380
2	303619	43.1	390
2	306364	43.483	400
2	306665	43.5	410
2	308490	43.7	420
2	310872	43.9	430
2	312774	44.1	440
2	314551	44.3	450
2	317144	44.681	460
2	317366	44.7	470
2	319573	44.9	480
2	320910	45.1	490
2	322736	45.3	500
2	325105	45.5	500
2	325120	45.5	510
2	326729	45.7	30
2	328838	45.9	40
2	330650	46.1	50
2	332138	46.3	60
2	333362	46.5	70
2	335893	46.7	80
2	338033	46.9	90
2	339657	47.1	100
2	340911	47.3	110
2	342370	47.5	120
2	346598	47.884	130
2	346858	47.9	140
2	349070	48.1	150
2	350537	48.3	160
2	354583	48.784	170
2	356343	48.97	180
2	356343	48.97	190
2	357767	49.1	200
2	359930	49.3	210
2	363117	49.688	220
2	363317	49.7	230
2	365309	49.9	240
2	366828	50.1	250
2	368299	50.3	260
2	370675	50.5	270
2	372527	50.7	280
2	374310	50.9	290
2	376139	51.1	300
2	377665	51.3	310
2	378990	51.5	320
2	381401	51.7	330
2	383327	51.9	340
2	385158	52.1	350
2	386642	52.3	360
2	390128	52.684	370
2	390336	52.7	380
2	392332	52.9	390
2	394151	53.1	400
2	395948	53.3	410
2	397731	53.5	420
2	400900	53.884	430
2	401106	53.9	440
2	403136	54.1	450
2	404931	54.3	460
2	406700	54.5	470
2	408177	54.7	480
2	409646	54.9	490
2	411759	55.1	500
2	413677	55.3	510
2	415727	55.5	510
2	415744	55.5	520
2	417595	55.7	20
2	419384	55.9	30
2	420899	56.1	40
2	422057	56.3	50
2	424582	56.5	60
2	427707	56.881	70
2	428049	56.9	80
2	430244	57.1	90
2	432031	57.3	100
2	433510	57.5	110
2	434830	57.7	120
2	437344	57.9	130
2	439110	58.1	140
2	441036	58.3	150
2	442572	58.5	160
2	444045	58.7	170
2	446301	58.9	180
2	448284	59.1	190
2	450071	59.3	200
2	451846	59.5	210
2	453635	59.7	220
2	455414	59.9	230
2	457243	60.1	240
2	459032	60.3	250
2	460827	60.5	260
2	462606	60.7	270
2	463935	60.9	280
2	467610	61.282	290
2	467838	61.3	300
2	469824	61.5	310
2	471619	61.7	320
2	473404	61.9	330
2	475233	62.1	340
2	477010	62.3	350
2	478809	62.5	360
2	480594	62.7	370
2	482369	62.9	380
2	483721	63.1	390
2	485202	63.3	400
2	487404	63.5	410
2	489497	63.7	420
2	490841	63.9	430
2	492037	64.1	440
2	494061	64.3	450
2	495965	64.5	460
2	497891	64.7	470
2	501422	65.082	480
2	501780	65.1	490
2	503822	65.3	500
2	505296	65.5	500
2	505311	65.5	510
2	507745	65.7	40
2	509609	65.9	50
2	511287	66.1	60
2	512966	66.3	70
2	514295	66.5	80
2	516430	66.7	90
2	518064	66.9	100
2	519838	67.1	110
2	521394	67.3	120
2	525397	67.681	130
2	525627	67.7	140
2	527733	67.9	150
2	529552	68.1	160
2	531349	68.3	170
2	533134	68.5	180
2	534917	68.7	190
2	536704	68.9	200
2	538222	69.1	210
2	540216	69.3	220
2	541864	69.5	230
2	543328	69.7	240
2	545585	69.9	250
2	546990	70.1	260
2	548144	70.3	270
2	550661	70.5	280
2	552645	70.7	290
2	554649	70.9	300
2	556580	71.1	310
2	558066	71.3	320
2	560064	71.5	330
2	561643	71.7	340
2	562799	71.9	350
2	565502	72.285	360
2	565680	72.3	370
2	567689	72.5	380
2	569447	72.7	390
2	570890	72.9	400
2	572233	73.1	410
2	573647	73.3	420
2	575279	73.5	430
2	576719	73.7	440
2	578167	73.9	450
2	579647	74.1	460
2	581099	74.3	470
2	583592	74.683	480
2	583780	74.7	490
2	585415	74.9	500
2	586901	75.1	510
2	587816	75.3	520
2	589517	75.5	520
2	589531	75.5	530
2	591309	75.7	20
2	592741	75.9	30
2	593775	76.1	40
2	595580	76.3	50
2	596994	76.5	60
2	598587	76.7	70
2	600031	76.9	80
2	601513	77.1	90
2	602959	77.3	100
2	604141	77.5	110
2	605790	77.7	120
2	607304	77.9	130
2	608798	78.1	140
2	610234	78.3	150
2	611416	78.5	160
2	613069	78.7	170
2	614444	78.9	180
2	616080	79.1	190
2	617216	79.3	200
2	620022	79.682	210
2	620228	79.7	220
2	621718	79.9	230
2	623343	80.1	240
2	624795	80.3	250
2	626096	80.5	260
2	628477	80.882	270
2	628775	80.9	280
2	631340	81.281	290
2	631528	81.3	300
2	633377	81.5	310
2	634753	81.7	320
2	636364	81.9	330
2	637972	82.1	340
2	639410	82.3	350
2	640844	82.5	360
2	642137	82.7	370
2	643554	82.9	380
2	645225	83.1	390
2	646686	83.3	400
2	648118	83.5	410
2	649306	83.7	420
2	650949	83.9	430
2	652220	84.1	440
2	653865	84.3	450
2	655413	84.5	460
2	656869	84.7	470
2	658290	84.9	480
2	659781	85.1	490
2	661217	85.3	500
2	662338	85.5	500
2	663640	85.681	20
2	663862	85.7	30
2	665609	85.9	40
2	667101	86.1	50
2	668545	86.3	60
2	669981	86.5	70
2	672211	86.885	80
2	673578	87.083	90
2	673898	87.1	100
2	675799	87.3	110
2	677017	87.5	120
2	678666	87.7	130
2	679930	87.9	140
2	682774	88.283	150
2	682960	88.3	160
2	684607	88.5	170
2	685894	88.7	180
2	687472	88.9	190
2	688983	89.1	200
2	690112	89.3	210
2	691503	89.5	220
2	693135	89.7	230
2	694473	89.9	240
2	696032	90.1	250
2	697708	90.3	260
2	699191	90.5	270
2	700478	90.7	280
2	701782	90.9	290
2	704397	91.284	300
2	704696	91.3	310
2	706468	91.5	320
2	707930	91.7	330
2	709364	91.9	340
2	710555	92.1	350
2	712202	92.3	360
2	713754	92.5	370
2	715192	92.7	380
2	716646	92.9	390
2	718121	93.1	400
2	719308	93.3	410
2	720937	93.5	420
2	722477	93.7	430
2	725018	94.083	440
2	725220	94.1	450
2	726845	94.3	460
2	728297	94.5	470
2	729739	94.7	480
2	731167	94.9	490
2	732340	95.1	500
2	733999	95.3	510
2	735543	95.5	510
2	735557	95.5	520
2	737041	95.7	20
2	738495	95.9	30
2	739977	96.1	40
2	741413	96.3	50
2	742851	96.5	60
2	744297	96.7	70
2	745729	96.9	80
2	747213	97.1	90
2	748655	97.3	100
2	750095	97.5	110
2	751275	97.7	120
2	752882	97.9	130
2	754500	98.1	140
2	755924	98.3	150
2	759106	98.791	160
2	759106	98.791	170
2	760016	98.9	180
2	761782	99.1	190
2	762960	99.3	200
2	764309	99.5	210
2	766047	99.7	220
2	767603	99.9	230
2	769085	100.1	240
2	770527	100.3	250
2	771963	100.5	260
2	773407	100.7	270
2	774847	100.9	280
2	776339	101.1	290
2	777773	101.3	300
2	779213	101.5	310
2	781457	101.883	320
2	781753	101.9	330
2	783557	102.1	340
2	785047	102.3	350
2	786487	102.5	360
2	787911	102.7	370
2	789359	102.9	380
2	791621	103.281	390
2	791941	103.3	400
2	793732	103.5	410
2	796234	103.882	420
2	796432	103.9	430
2	798123	104.1	440
2	799561	104.3	450
2	800743	104.5	460
2	802378	104.7	470
2	803924	104.9	480
2	805388	105.1	490
2	806834	105.3	500
2	808268	105.5	500
2	808282	105.5	510
2	809770	105.7	20
2	811202	105.9	30
2	812434	106.1	40
2	814047	106.3	50
2	815605	106.5	60
2	817043	106.7	70
2	818493	106.9	80
2	819969	107.1	90
2	820953	107.3	100
2	822590	107.5	110
2	824142	107.7	120
2	825760	107.9	130
2	827279	108.1	140
2	828414	108.3	150
2	830061	108.5	160
2	831357	108.7	170
2	832972	108.9	180
2	834574	109.1	190
2	837043	109.488	200
2	837220	109.5	210
2	838922	109.7	220
2	840354	109.9	230
2	841838	110.1	240
2	843278	110.3	250
2	844718	110.5	260
2	846159	110.7	270
2	847608	110.9	280
2	850129	111.282	290
2	850331	111.3	300
2	851714	111.5	310
2	855389	112.085	320
2	855389	112.085	330
2	855707	112.1	340
2	857843	112.3	350
2	859287	112.5	360
2	860729	112.7	370
2	862171	112.9	380
2	864708	113.282	390
2	864910	113.3	400
2	866541	113.5	410
2	867983	113.7	420
2	870534	114.083	430
2	870726	114.1	440
2	872367	114.3	450
2	873803	114.5	460
2	875245	114.7	470
2	876683	114.9	480
2	878014	115.1	490
2	879611	115.3	500
2	880732	115.5	500
2	880746	115.5	510
2	882439	115.7	30
2	884007	115.9	40
2	885493	116.1	50
2	886925	116.3	60
2	888363	116.5	70
2	889819	116.7	80
2	891259	116.9	90
2	892727	117.1	100
2	894181	117.3	110
2	895613	117.5	120
2	897051	117.7	130
2	898499	117.9	140
2	900916	118.285	150
2	901156	118.3	160
2	902908	118.5	170
2	904342	118.7	180
2	905790	118.9	190
2	907282	119.1	200
2	908714	119.3	210
2	910154	119.5	220
2	911596	119.7	230
2	913032	119.9	240
2	914528	120.1	250
2	915964	120.3	260
2	917134	120.5	270
2	918791	120.7	280
2	921400	121.082	290
2	921606	121.1	300
2	923251	121.3	310
2	924691	121.5	320
2	925978	121.7	330
2	927529	121.9	340
2	928908	122.1	350
2	930167	122.3	360
2	932878	122.681	370
2	933052	122.7	380
2	934879	122.9	390
2	936377	123.1	400
2	937823	123.3	410
2	939251	123.5	420
2	940693	123.7	430
2	942141	123.9	440
2	943472	124.1	450
2	944801	124.3	460
2	946466	124.5	470
2	947528	124.7	480
2	949305	124.9	490
2	950930	125.1	500
2	952370	125.3	510
2	953806	125.5	510
2	954895	125.682	10
2	955117	125.7	20
2	957861	126.085	30
2	958033	126.1	40
2	959688	126.3	50
2	961136	126.5	60
2	962574	126.7	70
2	963703	126.9	80
2	965394	127.1	90
2	966641	127.3	100
2	968040	127.5	110
2	969791	127.7	120
2	971321	127.9	130
2	972666	128.1	140
2	974232	128.3	150
2	975693	128.5	160
2	977145	128.7	170
2	978585	128.9	180
2	980065	129.1	190
1	5590	10.1	30
1	7497	10.3	40
1	9286	10.5	50
1	11065	10.7	60
1	12842	10.9	70
1	14526	11.1	80
1	16270	11.3	90
1	18012	11.5	100
1	19478	11.7	110
1	21242	11.9	120
1	22816	12.1	130
1	24538	12.3	140
1	26102	12.5	150
1	27834	12.7	160
1	29209	12.9	170
1	31930	13.1	180
1	34622	13.3	190
1	38571	13.732	200
1	38571	13.732	210
1	39877	13.9	220
1	41488	14.1	230
1	43064	14.3	240
1	44253	14.5	250
1	46283	14.7	260
1	48131	14.9	270
1	49909	15.1	280
1	51481	15.3	290
1	54042	15.5	290
1	56759	15.733	10
1	56759	15.733	20
1	58069	15.9	30
1	59853	16.1	40
1	61805	16.3	50
1	63600	16.5	60
1	65371	16.7	70
1	66655	16.9	80
1	71203	17.335	90
1	71203	17.335	100
1	72495	17.5	110
1	74400	17.7	120
1	76189	17.9	130
1	80169	18.331	140
1	80169	18.331	150
1	81488	18.5	160
1	83375	18.7	170
1	84905	18.9	180
1	86119	19.1	190
1	88058	19.3	200
1	90562	19.5	210
1	92235	19.7	220
1	97791	20.411	230
1	97791	20.411	240
1	97791	20.411	250
1	98924	20.5	260
1	100779	20.7	270
1	102870	20.9	280
1	107197	21.335	290
1	107197	21.335	300
1	110982	21.732	310
1	110982	21.732	320
1	114491	22.133	330
1	117891	22.606	340
1	117891	22.606	350
1	117891	22.606	360
1	119152	22.7	370
1	121447	22.9	380
1	123296	23.1	390
1	125069	23.3	400
1	126854	23.5	410
1	128637	23.7	420
1	130426	23.9	430
1	132261	24.1	440
1	133516	24.3	450
1	134342	24.5	460
1	136569	24.7	470
1	139184	24.9	480
1	140735	25.1	490
1	141893	25.3	500
1	143022	25.5	500
1	143037	25.5	510
1	146024	25.7	50
1	148571	25.9	60
1	150426	26.1	70
1	152201	26.3	80
1	153992	26.5	90
1	155767	26.7	100
1	157309	26.9	110
1	161379	27.33	120
1	163603	27.561	130
1	163603	27.561	140
1	167027	27.93	150
1	167027	27.93	160
1	168402	28.1	170
1	170297	28.3	180
1	171823	28.5	190
1	173297	28.7	200
1	175560	28.9	210
1	177537	29.1	220
1	179318	29.3	230
1	181085	29.5	240
1	182892	29.7	250
1	184673	29.9	260
1	186500	30.1	270
1	187774	30.3	280
1	189195	30.5	290
1	190653	30.7	300
1	192615	30.9	310
1	195079	31.1	320
1	196771	31.3	330
1	199034	31.5	340
1	200696	31.7	350
1	201975	31.9	360
1	204284	32.1	370
1	206428	32.3	380
1	208215	32.5	390
1	209998	32.7	400
1	211781	32.9	410
1	213604	33.1	420
1	215389	33.3	430
1	217188	33.5	440
1	218961	33.7	450
1	220748	33.9	460
1	222583	34.1	470
1	224366	34.3	480
1	225956	34.5	490
1	230101	34.932	500
1	230101	34.932	510
1	231460	35.1	520
1	233365	35.3	530
1	235142	35.5	530
1	235157	35.5	540
1	237008	35.7	20
1	238797	35.9	30
1	240624	36.1	40
1	244303	36.533	50
1	244303	36.533	60
1	245349	36.7	70
1	246615	36.9	80
1	249186	37.1	90
1	253446	37.529	100
1	253446	37.529	110
1	254925	37.7	120
1	256820	37.9	130
1	258649	38.1	140
1	260287	38.3	150
1	262216	38.5	160
1	263831	38.7	170
1	265793	38.9	180
1	267485	39.1	190
1	269178	39.3	200
1	270654	39.5	210
1	272909	39.7	220
1	274683	39.9	230
1	276506	40.1	240
1	278465	40.3	250
1	280267	40.5	260
1	284228	40.936	270
1	284228	40.936	280
1	285560	41.1	290
1	287145	41.3	300
1	288427	41.5	310
1	290948	41.7	320
1	292854	41.9	330
1	294173	42.1	340
1	295852	42.3	350
1	298234	42.5	360
1	299817	42.7	370
1	301102	42.9	380
1	303618	43.1	390
1	305531	43.3	400
1	306664	43.5	410
1	308489	43.7	420
1	310871	43.9	430
1	312773	44.1	440
1	314550	44.3	450
1	316074	44.5	460
1	317365	44.7	470
1	319572	44.9	480
1	320909	45.1	490
1	322735	45.3	500
1	325104	45.5	500
1	325119	45.5	510
1	326728	45.7	30
1	331212	46.132	40
1	334709	46.606	50
1	334709	46.606	60
1	334709	46.606	70
1	335892	46.7	80
1	338032	46.9	90
1	339656	47.1	100
1	340910	47.3	110
1	342369	47.5	120
1	344333	47.7	130
1	346857	47.9	140
1	349069	48.1	150
1	350536	48.3	160
1	352007	48.5	170
1	353746	48.7	180
1	355213	48.9	190
1	357766	49.1	200
1	359929	49.3	210
1	361732	49.5	220
1	363316	49.7	230
1	365308	49.9	240
1	366827	50.1	250
1	368298	50.3	260
1	370674	50.5	270
1	372526	50.7	280
1	374309	50.9	290
1	376138	51.1	300
1	377664	51.3	310
1	378989	51.5	320
1	381400	51.7	330
1	383326	51.9	340
1	387317	52.331	350
1	387317	52.331	360
1	388627	52.5	370
1	390335	52.7	380
1	392331	52.9	390
1	394150	53.1	400
1	395947	53.3	410
1	397730	53.5	420
1	399507	53.7	430
1	401105	53.9	440
1	403135	54.1	450
1	404930	54.3	460
1	406699	54.5	470
1	408176	54.7	480
1	412376	55.134	490
1	412376	55.134	500
1	413676	55.3	510
1	415726	55.5	510
1	415743	55.5	520
1	417594	55.7	20
1	419383	55.9	30
1	422975	56.331	40
1	422975	56.331	50
1	424581	56.5	60
1	426607	56.7	70
1	428048	56.9	80
1	430243	57.1	90
1	432030	57.3	100
1	433509	57.5	110
1	434829	57.7	120
1	437343	57.9	130
1	439109	58.1	140
1	441035	58.3	150
1	442571	58.5	160
1	444044	58.7	170
1	446300	58.9	180
1	448283	59.1	190
1	450070	59.3	200
1	451845	59.5	210
1	453634	59.7	220
1	455413	59.9	230
1	457242	60.1	240
1	459031	60.3	250
1	460826	60.5	260
1	464611	60.929	270
1	464611	60.929	280
1	466121	61.1	290
1	467837	61.3	300
1	469823	61.5	310
1	471618	61.7	320
1	473403	61.9	330
1	475232	62.1	340
1	477009	62.3	350
1	478808	62.5	360
1	480593	62.7	370
1	482368	62.9	380
1	483720	63.1	390
1	488189	63.533	400
1	488189	63.533	410
1	493082	64.207	420
1	493082	64.207	430
1	493082	64.207	440
1	494060	64.3	450
1	495964	64.5	460
1	497890	64.7	470
1	499576	64.9	480
1	501779	65.1	490
1	503821	65.3	500
1	505295	65.5	500
1	505310	65.5	510
1	507744	65.7	40
1	509608	65.9	50
1	511286	66.1	60
1	512965	66.3	70
1	514294	66.5	80
1	516429	66.7	90
1	518063	66.9	100
1	519837	67.1	110
1	524117	67.532	120
1	524117	67.532	130
1	525626	67.7	140
1	527732	67.9	150
1	529551	68.1	160
1	531348	68.3	170
1	533133	68.5	180
1	534916	68.7	190
1	538902	69.133	200
1	538902	69.133	210
1	540215	69.3	220
1	541863	69.5	230
1	543327	69.7	240
1	549491	70.405	250
1	549491	70.405	260
1	549491	70.405	270
1	553314	70.731	280
1	553314	70.731	290
1	554648	70.9	300
1	558736	71.331	310
1	558736	71.331	320
1	560063	71.5	330
1	563356	71.932	340
1	563356	71.932	350
1	564567	72.1	360
1	565679	72.3	370
1	567688	72.5	380
1	569446	72.7	390
1	570889	72.9	400
1	572232	73.1	410
1	573646	73.3	420
1	575278	73.5	430
1	576718	73.7	440
1	578166	73.9	450
1	579646	74.1	460
1	581098	74.3	470
1	582532	74.5	480
1	583779	74.7	490
1	585414	74.9	500
1	586900	75.1	510
1	587815	75.3	520
1	589516	75.5	520
1	589530	75.5	530
1	591308	75.7	20
1	594352	76.133	30
1	594352	76.133	40
1	595579	76.3	50
1	596993	76.5	60
1	598586	76.7	70
1	600030	76.9	80
1	601512	77.1	90
1	602958	77.3	100
1	604140	77.5	110
1	605789	77.7	120
1	607303	77.9	130
1	608797	78.1	140
1	610233	78.3	150
1	611415	78.5	160
1	613068	78.7	170
1	614443	78.9	180
1	617759	79.331	190
1	617759	79.331	200
1	618862	79.5	210
1	620227	79.7	220
1	621717	79.9	230
1	623342	80.1	240
1	624794	80.3	250
1	626095	80.5	260
1	627689	80.7	270
1	630763	81.133	280
1	632368	81.366	290
1	632368	81.366	300
1	633376	81.5	310
1	634752	81.7	320
1	636363	81.9	330
1	637971	82.1	340
1	639409	82.3	350
1	640843	82.5	360
1	642136	82.7	370
1	643553	82.9	380
1	645224	83.1	390
1	646685	83.3	400
1	648117	83.5	410
1	649305	83.7	420
1	652772	84.133	430
1	652772	84.133	440
1	653864	84.3	450
1	655412	84.5	460
1	656868	84.7	470
1	658289	84.9	480
1	659780	85.1	490
1	662337	85.5	490
1	662865	85.541	500
1	662865	85.541	510
1	663861	85.7	30
1	665608	85.9	40
1	667100	86.1	50
1	668544	86.3	60
1	669980	86.5	70
1	672738	86.947	80
1	672738	86.947	90
1	673897	87.1	100
1	675798	87.3	110
1	677016	87.5	120
1	678665	87.7	130
1	679929	87.9	140
1	681625	88.1	150
1	682959	88.3	160
1	684606	88.5	170
1	685893	88.7	180
1	687471	88.9	190
1	690654	89.331	200
1	692260	89.563	210
1	692260	89.563	220
1	694900	89.932	230
1	694900	89.932	240
1	696031	90.1	250
1	697707	90.3	260
1	699190	90.5	270
1	700477	90.7	280
1	701781	90.9	290
1	703495	91.1	300
1	704695	91.3	310
1	706467	91.5	320
1	707929	91.7	330
1	711096	92.131	340
1	711096	92.131	350
1	712201	92.3	360
1	713753	92.5	370
1	715191	92.7	380
1	716645	92.9	390
1	718120	93.1	400
1	719307	93.3	410
1	720936	93.5	420
1	722476	93.7	430
1	723916	93.9	440
1	725219	94.1	450
1	726844	94.3	460
1	728296	94.5	470
1	729738	94.7	480
1	732885	95.13	490
1	732885	95.13	500
1	733998	95.3	510
1	735542	95.5	510
1	735556	95.5	520
1	737040	95.7	20
1	738494	95.9	30
1	739976	96.1	40
1	741412	96.3	50
1	742850	96.5	60
1	744296	96.7	70
1	745728	96.9	80
1	747212	97.1	90
1	748654	97.3	100
1	750094	97.5	110
1	751274	97.7	120
1	752881	97.9	130
1	754499	98.1	140
1	757386	98.535	150
1	757386	98.535	160
1	758132	98.7	170
1	760015	98.9	180
1	761781	99.1	190
1	764865	99.532	200
1	764865	99.532	210
1	766046	99.7	220
1	767602	99.9	230
1	769084	100.1	240
1	770526	100.3	250
1	771962	100.5	260
1	773406	100.7	270
1	774846	100.9	280
1	776338	101.1	290
1	777772	101.3	300
1	779212	101.5	310
1	780658	101.7	320
1	781752	101.9	330
1	783556	102.1	340
1	785046	102.3	350
1	786486	102.5	360
1	787910	102.7	370
1	789358	102.9	380
1	790850	103.1	390
1	791940	103.3	400
1	793731	103.5	410
1	795180	103.7	420
1	796431	103.9	430
1	798122	104.1	440
1	799560	104.3	450
1	800742	104.5	460
1	802377	104.7	470
1	803923	104.9	480
1	805387	105.1	490
1	806833	105.3	500
1	808267	105.5	500
1	808281	105.5	510
1	809769	105.7	20
1	811201	105.9	30
1	812433	106.1	40
1	814046	106.3	50
1	815604	106.5	60
1	817042	106.7	70
1	818492	106.9	80
1	821389	107.333	90
1	821389	107.333	100
1	822589	107.5	110
1	824141	107.7	120
1	825759	107.9	130
1	828951	108.33	140
1	828951	108.33	150
1	830060	108.5	160
1	831356	108.7	170
1	832971	108.9	180
1	834573	109.1	190
1	835862	109.3	200
1	837219	109.5	210
1	838921	109.7	220
1	840353	109.9	230
1	841837	110.1	240
1	843277	110.3	250
1	844717	110.5	260
1	846158	110.7	270
1	847607	110.9	280
1	849091	111.1	290
1	850330	111.3	300
1	851713	111.5	310
1	853328	111.7	320
1	854315	111.9	330
1	855706	112.1	340
1	857842	112.3	350
1	859286	112.5	360
1	860728	112.7	370
1	862170	112.9	380
1	863652	113.1	390
1	864909	113.3	400
1	866540	113.5	410
1	867982	113.7	420
1	869420	113.9	430
1	870725	114.1	440
1	872366	114.3	450
1	873802	114.5	460
1	875244	114.7	470
1	876682	114.9	480
1	878013	115.1	490
1	880731	115.5	490
1	881310	115.531	500
1	881310	115.531	510
1	882438	115.7	30
1	884006	115.9	40
1	885492	116.1	50
1	886924	116.3	60
1	888362	116.5	70
1	889818	116.7	80
1	891258	116.9	90
1	892726	117.1	100
1	894180	117.3	110
1	895612	117.5	120
1	897050	117.7	130
1	898498	117.9	140
1	899714	118.1	150
1	901155	118.3	160
1	902907	118.5	170
1	904341	118.7	180
1	905789	118.9	190
1	907281	119.1	200
1	908713	119.3	210
1	910153	119.5	220
1	911595	119.7	230
1	913031	119.9	240
1	914527	120.1	250
1	915963	120.3	260
1	917133	120.5	270
1	918790	120.7	280
1	920306	120.9	290
1	921605	121.1	300
1	923250	121.3	310
1	924690	121.5	320
1	925977	121.7	330
1	927528	121.9	340
1	930755	122.332	350
1	932176	122.563	360
1	932176	122.563	370
1	933051	122.7	380
1	934878	122.9	390
1	936376	123.1	400
1	937822	123.3	410
1	939250	123.5	420
1	940692	123.7	430
1	942140	123.9	440
1	943471	124.1	450
1	944800	124.3	460
1	948094	124.732	470
1	948094	124.732	480
1	949304	124.9	490
1	950929	125.1	500
1	952369	125.3	510
1	953805	125.5	510
1	953819	125.5	520
1	955116	125.7	20
1	956751	125.9	30
1	958032	126.1	40
1	959687	126.3	50
1	961135	126.5	60
1	964267	126.933	70
1	964267	126.933	80
1	967053	127.329	90
1	967053	127.329	100
1	968039	127.5	110
1	969790	127.7	120
1	971320	127.9	130
1	972665	128.1	140
1	974231	128.3	150
1	975692	128.5	160
1	977144	128.7	170
1	978584	128.9	180
1	980064	129.1	190
1	981483	129.3	200
1	982586	129.5	210
1	983679	129.7	220
1	984774	129.9	230
1	985912	130.1	240
1	987013	130.3	250
1	988104	130.5	260
1	989199	130.7	270
1	990292	130.9	280
1	991439	131.1	290
1	992530	131.3	300
1	993365	131.5	310
1	994640	131.7	320
1	995845	131.9	330
1	996988	132.1	340
1	998085	132.3	350
1	999168	132.5	360
1	1000275	132.7	370
1	1001368	132.9	380
1	1002505	133.1	390
1	1003328	133.3	400
1	1004371	133.5	410
1	1005680	133.7	420
1	1006935	133.9	430
1	1008080	134.1	440
1	1008905	134.3	450
1	1010142	134.5	460
1	1011381	134.7	470
1	1012329	134.9	480
1	1014726	135.33	490
1	1014726	135.33	500
1	1015576	135.5	500
1	1015589	135.5	510
1	1016814	135.7	520
1	1018094	135.9	30
1	1019235	136.1	40
1	1020334	136.3	50
1	1022637	136.731	60
1	1022637	136.731	70
1	1023529	136.9	80
1	1024514	137.1	90
1	1025799	137.3	100
1	1026728	137.5	110
1	1027887	137.7	120
1	1029040	137.9	130
1	1030362	138.1	140
1	1031492	138.3	150
1	1032585	138.5	160
1	1033664	138.7	170
1	1034769	138.9	180
1	1035916	139.1	190
1	1037007	139.3	200
1	1038102	139.5	210
1	1039187	139.7	220
1	1040137	139.9	230
1	1041409	140.1	240
1	1042532	140.3	250
1	1043363	140.5	260
1	1044624	140.7	270
1	1045571	140.9	280
1	1046734	141.1	290
1	1048093	141.3	300
1	1048958	141.5	310
1	1050245	141.7	320
1	1051279	141.9	330
1	1053644	142.329	340
1	1053644	142.329	350
1	1054403	142.5	360
1	1055798	142.7	370
1	1056844	142.9	380
1	1058108	143.1	390
1	1059247	143.3	400
1	1060338	143.5	410
1	1061429	143.7	420
1	1062530	143.9	430
1	1063677	144.1	440
1	1064760	144.3	450
1	1065855	144.5	460
1	1066954	144.7	470
1	1068045	144.9	480
1	1069198	145.1	490
1	1070283	145.3	500
1	1071370	145.5	500
1	1071383	145.5	510
1	1072508	145.7	20
1	1073593	145.9	30
1	1074586	146.1	40
1	1075820	146.3	50
1	1076938	146.5	60
1	1078029	146.7	70
1	1079130	146.9	80
1	1080271	147.1	90
1	1081362	147.3	100
1	1082455	147.5	110
1	1083549	147.7	120
1	1084637	147.9	130
1	1085649	148.1	140
1	1086879	148.3	150
1	1087982	148.5	160
1	1089087	148.7	170
1	1090174	148.9	180
1	1091313	149.1	190
1	1092424	149.3	200
1	1094717	149.732	210
1	1094717	149.732	220
1	1095597	149.9	230
1	1098063	150.33	240
1	1099262	150.56	250
1	1100447	150.791	260
1	1100447	150.791	270
1	1101083	150.9	280
1	1102465	151.1	290
1	1103290	151.3	300
1	1104575	151.5	310
1	1105514	151.7	320
1	1106821	151.9	330
1	1108040	152.1	340
1	1109135	152.3	350
1	1109960	152.5	360
1	1111253	152.7	370
1	1112442	152.9	380
1	1113583	153.1	390
1	1114533	153.3	400
1	1115781	153.5	410
1	1116729	153.7	420
1	1117715	153.9	430
1	1119028	154.1	440
1	1120088	154.3	450
1	1121318	154.5	460
1	1122300	154.7	470
1	1123514	154.9	480
1	1124687	155.1	490
1	1126564	155.5	490
1	1126881	155.53	500
1	1126881	155.53	510
1	1127756	155.7	30
1	1129100	155.9	40
1	1131209	156.33	50
1	1131209	156.33	60
1	1133380	156.73	70
1	1133380	156.73	80
1	1134592	156.9	90
1	1135706	157.1	100
1	1136922	157.3	110
1	1139258	157.731	120
1	1139258	157.731	130
1	1140145	157.9	140
1	1141394	158.1	150
1	1142493	158.3	160
1	1143586	158.5	170
1	1144687	158.7	180
1	1145786	158.9	190
1	1146923	159.1	200
1	1148012	159.3	210
1	1148960	159.5	220
1	1150180	159.7	230
1	1151313	159.9	240
1	1152182	160.1	250
1	1153483	160.3	260
1	1154660	160.5	270
1	1156967	160.931	280
1	1156967	160.931	290
1	1157899	161.1	300
1	1158842	161.3	310
1	1159893	161.5	320
1	1161194	161.7	330
1	1162443	161.9	340
1	1163580	162.1	350
1	1164530	162.3	360
1	1167011	162.734	370
1	1167011	162.734	380
1	1167870	162.9	390
1	1169129	163.1	400
1	1170218	163.3	410
1	1171168	163.5	420
1	1172382	163.7	430
1	1173521	163.9	440
1	1174660	164.1	450
1	1175748	164.3	460
1	1176856	164.5	470
1	1177945	164.7	480
1	1179046	164.9	490
1	1180181	165.1	500
1	1181270	165.3	510
1	1182216	165.5	510
1	1183349	165.729	10
1	1183349	165.729	20
1	1184348	165.9	30
1	1185784	166.1	40
1	1188072	166.529	50
1	1188072	166.529	60
1	1188968	166.7	70
1	1190175	166.9	80
1	1191328	167.1	90
1	1192421	167.3	100
1	1193520	167.5	110
1	1194613	167.7	120
1	1195700	167.9	130
1	1196575	168.1	140
1	1197870	168.3	150
1	1199061	168.5	160
1	1200150	168.7	170
1	1202514	169.133	180
1	1202514	169.133	190
1	1203391	169.3	200
1	1204586	169.5	210
1	1205693	169.7	220
1	1208051	170.134	230
1	1208051	170.134	240
1	1208918	170.3	250
1	1210137	170.5	260
1	1211222	170.7	270
1	1212174	170.9	280
1	1213452	171.1	290
1	1214024	171.3	300
1	1215415	171.5	310
1	1216792	171.7	320
1	1217883	171.9	330
1	1218756	172.1	340
1	1220051	172.3	350
1	1221089	172.5	360
1	1222321	172.7	370
1	1223434	172.9	380
1	1224575	173.1	390
1	1226878	173.531	400
1	1226878	173.531	410
1	1227764	173.7	420
1	1228971	173.9	430
1	1230114	174.1	440
1	1231205	174.3	450
1	1232040	174.5	460
1	1233301	174.7	470
1	1234508	174.9	480
1	1235657	175.1	490
vector 15 FastSMRModel.logicComputer[0].node[6] QdLengthVector:vector ETV
attr source QdLength
attr title "Qd Length, vector"
vector 16 FastSMRModel.logicComputer[0].node[5] QdLengthVector:vector ETV
attr source QdLength
attr title "Qd Length, vector"
vector 17 FastSMRModel.logicComputer[0].node[7] QdLengthVector:vector ETV
attr source QdLength
attr title "Qd Length, vector"
5	5594	10.1	30
5	7501	10.3	40
5	9290	10.5	50
5	11069	10.7	60
5	12846	10.9	70
5	14530	11.1	80
5	20086	11.72	90
5	23582	12.142	100
5	26952	12.561	110
5	30065	12.982	120
5	30065	12.982	130
5	30065	12.982	140
5	30065	12.982	150
5	30065	12.982	160
5	30065	12.982	170
5	31934	13.1	180
5	34626	13.3	190
5	36419	13.5	200
5	37901	13.7	210
5	39881	13.9	220
5	44705	14.522	230
5	48903	14.942	240
5	52323	15.361	250
5	52323	15.361	260
5	52323	15.361	270
5	52323	15.361	280
5	52323	15.361	290
5	54046	15.5	290
5	54061	15.5	300
5	56079	15.7	310
5	58073	15.9	30
5	59857	16.1	40
5	61809	16.3	50
5	63604	16.5	60
5	65375	16.7	70
5	66659	16.9	80
5	68365	17.1	90
5	70444	17.3	100
5	72499	17.5	110
5	74404	17.7	120
5	76193	17.9	130
5	78020	18.1	140
5	79502	18.3	150
5	81492	18.5	160
5	86615	19.125	170
5	86615	19.125	180
5	86615	19.125	190
5	88062	19.3	200
5	90566	19.5	210
5	92239	19.7	220
5	97034	20.326	230
5	97034	20.326	240
5	101574	20.747	250
5	101574	20.747	260
5	105183	21.167	270
5	105183	21.167	280
5	105183	21.167	290
5	106425	21.3	300
5	108698	21.5	310
5	110304	21.7	320
5	112296	21.9	330
5	116922	22.519	340
5	116922	22.519	350
5	116922	22.519	360
5	119156	22.7	370
5	121451	22.9	380
5	123300	23.1	390
5	125073	23.3	400
5	126858	23.5	410
5	128641	23.7	420
5	130430	23.9	430
5	134680	24.519	440
5	134680	24.519	450
5	134680	24.519	460
5	136573	24.7	470
5	143026	25.5	470
5	143442	25.52	480
5	143442	25.52	490
5	143442	25.52	500
5	143442	25.52	510
5	146028	25.7	520
5	148575	25.9	60
5	150430	26.1	70
5	152205	26.3	80
5	153996	26.5	90
5	159025	27.122	100
5	159025	27.122	110
5	159025	27.122	120
5	160581	27.3	130
5	162686	27.5	140
5	164678	27.7	150
5	166363	27.9	160
5	168406	28.1	170
5	173905	28.719	180
5	173905	28.719	190
5	173905	28.719	200
5	175564	28.9	210
5	177541	29.1	220
5	179322	29.3	230
5	181089	29.5	240
5	182896	29.7	250
5	184677	29.9	260
5	186504	30.1	270
5	191176	30.722	280
5	191176	30.722	290
5	191176	30.722	300
5	197377	31.32	310
5	197377	31.32	320
5	197377	31.32	330
5	202459	31.92	340
5	202459	31.92	350
5	202459	31.92	360
5	204288	32.1	370
5	206432	32.3	380
5	208219	32.5	390
5	210002	32.7	400
5	211785	32.9	410
5	213608	33.1	420
5	215393	33.3	430
5	217192	33.5	440
5	218965	33.7	450
5	220752	33.9	460
5	222587	34.1	470
5	224370	34.3	480
5	225960	34.5	490
5	227955	34.7	500
5	229428	34.9	510
5	231464	35.1	520
5	233369	35.3	530
5	235146	35.5	530
5	235161	35.5	540
5	237012	35.7	520
5	238801	35.9	30
5	240628	36.1	40
5	242419	36.3	50
5	247063	36.92	60
5	247063	36.92	70
5	247063	36.92	80
5	249190	37.1	90
5	251429	37.3	100
5	252726	37.5	110
5	254929	37.7	120
5	256824	37.9	130
5	258653	38.1	140
5	260291	38.3	150
5	262220	38.5	160
5	263835	38.7	170
5	265797	38.9	180
5	271258	39.519	190
5	271258	39.519	200
5	271258	39.519	210
5	272913	39.7	220
5	274687	39.9	230
5	276510	40.1	240
5	278469	40.3	250
5	280271	40.5	260
5	282050	40.7	270
5	283519	40.9	280
5	285564	41.1	290
5	287149	41.3	300
5	288431	41.5	310
5	290952	41.7	320
5	292858	41.9	330
5	294177	42.1	340
5	295856	42.3	350
5	301779	42.924	360
5	301779	42.924	370
5	301779	42.924	380
5	303622	43.1	390
5	305535	43.3	400
5	306668	43.5	410
5	308493	43.7	420
5	310875	43.9	430
5	312777	44.1	440
5	317991	44.72	450
5	317991	44.72	460
5	321546	45.144	470
5	321546	45.144	480
5	321546	45.144	490
5	325108	45.5	490
5	327219	45.719	10
5	327219	45.719	20
5	327219	45.719	30
5	328841	45.9	40
5	333841	46.52	50
5	333841	46.52	60
5	333841	46.52	70
5	335896	46.7	80
5	338036	46.9	90
5	342884	47.519	100
5	342884	47.519	110
5	342884	47.519	120
5	344337	47.7	130
5	346861	47.9	140
5	349073	48.1	150
5	350540	48.3	160
5	352011	48.5	170
5	353750	48.7	180
5	355217	48.9	190
5	357770	49.1	200
5	359933	49.3	210
5	361736	49.5	220
5	363320	49.7	230
5	365312	49.9	240
5	366831	50.1	250
5	368302	50.3	260
5	370678	50.5	270
5	372530	50.7	280
5	374313	50.9	290
5	379607	51.52	300
5	379607	51.52	310
5	379607	51.52	320
5	381404	51.7	330
5	383330	51.9	340
5	385161	52.1	350
5	386645	52.3	360
5	388631	52.5	370
5	390339	52.7	380
5	392335	52.9	390
5	394154	53.1	400
5	395951	53.3	410
5	397734	53.5	420
5	399511	53.7	430
5	401109	53.9	440
5	403139	54.1	450
5	404934	54.3	460
5	406703	54.5	470
5	408180	54.7	480
5	409649	54.9	490
5	411762	55.1	500
5	413680	55.3	510
5	415730	55.5	510
5	415747	55.5	520
5	417598	55.7	520
5	419387	55.9	30
5	420902	56.1	40
5	422060	56.3	50
5	424585	56.5	60
5	426611	56.7	70
5	428052	56.9	80
5	430247	57.1	90
5	432034	57.3	100
5	433513	57.5	110
5	434833	57.7	120
5	437347	57.9	130
5	439113	58.1	140
5	444657	58.719	150
5	444657	58.719	160
5	444657	58.719	170
5	446304	58.9	180
5	448287	59.1	190
5	450074	59.3	200
5	451849	59.5	210
5	453638	59.7	220
5	455417	59.9	230
5	457246	60.1	240
5	459035	60.3	250
5	460830	60.5	260
5	462609	60.7	270
5	463938	60.9	280
5	466125	61.1	290
5	467841	61.3	300
5	469827	61.5	310
5	471622	61.7	320
5	473407	61.9	330
5	475236	62.1	340
5	477013	62.3	350
5	478812	62.5	360
5	480597	62.7	370
5	482372	62.9	380
5	483724	63.1	390
5	485205	63.3	400
5	487407	63.5	410
5	492528	64.123	420
5	496732	64.544	430
5	496732	64.544	440
5	500271	64.972	450
5	500271	64.972	460
5	500271	64.972	470
5	500271	64.972	480
5	501783	65.1	490
5	503825	65.3	500
5	505299	65.5	500
5	505314	65.5	510
5	507748	65.7	520
5	509612	65.9	50
5	514870	66.52	60
5	514870	66.52	70
5	518819	66.94	80
5	522090	67.36	90
5	522090	67.36	100
5	522090	67.36	110
5	522090	67.36	120
5	523458	67.5	130
5	525630	67.7	140
5	527736	67.9	150
5	529555	68.1	160
5	531352	68.3	170
5	533137	68.5	180
5	534920	68.7	190
5	536707	68.9	200
5	538225	69.1	210
5	543935	69.719	220
5	543935	69.719	230
5	543935	69.719	240
5	548625	70.319	250
5	548625	70.319	260
5	548625	70.319	270
5	550664	70.5	280
5	552648	70.7	290
5	554652	70.9	300
5	556583	71.1	310
5	558069	71.3	320
5	560067	71.5	330
5	561646	71.7	340
5	566054	72.319	350
5	566054	72.319	360
5	566054	72.319	370
5	567691	72.5	380
5	569449	72.7	390
5	570892	72.9	400
5	572235	73.1	410
5	573649	73.3	420
5	575281	73.5	430
5	576721	73.7	440
5	578169	73.9	450
5	579649	74.1	460
5	581101	74.3	470
5	582535	74.5	480
5	583782	74.7	490
5	585417	74.9	500
5	588141	75.331	510
5	588141	75.331	520
5	589519	75.5	520
5	589533	75.5	530
5	591311	75.7	20
5	592743	75.9	30
5	593777	76.1	40
5	595582	76.3	50
5	596996	76.5	60
5	598589	76.7	70
5	600033	76.9	80
5	601515	77.1	90
5	604630	77.53	100
5	604630	77.53	110
5	605792	77.7	120
5	607306	77.9	130
5	608800	78.1	140
5	611905	78.529	150
5	611905	78.529	160
5	613071	78.7	170
5	614446	78.9	180
5	616082	79.1	190
5	617218	79.3	200
5	618865	79.5	210
5	620230	79.7	220
5	621720	79.9	230
5	623345	80.1	240
5	624797	80.3	250
5	626098	80.5	260
5	627692	80.7	270
5	628777	80.9	280
5	630292	81.1	290
5	631530	81.3	300
5	635278	81.734	310
5	635278	81.734	320
5	636366	81.9	330
5	637974	82.1	340
5	639412	82.3	350
5	640846	82.5	360
5	642139	82.7	370
5	643556	82.9	380
5	645227	83.1	390
5	646688	83.3	400
5	649799	83.73	410
5	649799	83.73	420
5	650951	83.9	430
5	652222	84.1	440
5	653867	84.3	450
5	655415	84.5	460
5	656871	84.7	470
5	658292	84.9	480
5	659783	85.1	490
5	661219	85.3	500
5	662340	85.5	500
5	662354	85.5	510
5	663864	85.7	30
5	665611	85.9	40
5	667103	86.1	50
5	668547	86.3	60
5	669983	86.5	70
5	671429	86.7	80
5	672361	86.9	90
5	673900	87.1	100
5	677514	87.529	110
5	677514	87.529	120
5	680419	87.929	130
5	680419	87.929	140
5	681628	88.1	150
5	682962	88.3	160
5	684609	88.5	170
5	685896	88.7	180
5	687474	88.9	190
5	688985	89.1	200
5	690114	89.3	210
5	691505	89.5	220
5	693137	89.7	230
5	694475	89.9	240
5	696034	90.1	250
5	697710	90.3	260
5	699193	90.5	270
5	702304	90.93	280
5	702304	90.93	290
5	703498	91.1	300
5	704698	91.3	310
5	706470	91.5	320
5	707932	91.7	330
5	709366	91.9	340
5	710557	92.1	350
5	712204	92.3	360
5	713756	92.5	370
5	715194	92.7	380
5	716648	92.9	390
5	719811	93.332	400
5	719811	93.332	410
5	720939	93.5	420
5	722479	93.7	430
5	723919	93.9	440
5	725222	94.1	450
5	726847	94.3	460
5	728299	94.5	470
5	729741	94.7	480
5	731169	94.9	490
5	732342	95.1	500
5	734001	95.3	510
5	735545	95.5	510
5	735559	95.5	520
5	737043	95.7	20
5	738497	95.9	30
5	739979	96.1	40
5	741415	96.3	50
5	742853	96.5	60
5	744299	96.7	70
5	745731	96.9	80
5	747215	97.1	90
5	748657	97.3	100
5	751886	97.74	110
5	751886	97.74	120
5	752884	97.9	130
5	754502	98.1	140
5	755926	98.3	150
5	758548	98.729	160
5	758548	98.729	170
5	760018	98.9	180
5	763342	99.33	190
5	763342	99.33	200
5	764311	99.5	210
5	766049	99.7	220
5	767605	99.9	230
5	769087	100.1	240
5	770529	100.3	250
5	771965	100.5	260
5	773409	100.7	270
5	774849	100.9	280
5	776341	101.1	290
5	777775	101.3	300
5	779215	101.5	310
5	780661	101.7	320
5	781755	101.9	330
5	783559	102.1	340
5	785049	102.3	350
5	786489	102.5	360
5	787913	102.7	370
5	789361	102.9	380
5	790853	103.1	390
5	791943	103.3	400
5	793734	103.5	410
5	795183	103.7	420
5	796434	103.9	430
5	798125	104.1	440
5	801256	104.532	450
5	801256	104.532	460
5	802380	104.7	470
5	803926	104.9	480
5	805390	105.1	490
5	806836	105.3	500
5	808270	105.5	500
5	808284	105.5	510
5	809772	105.7	20
5	812955	106.133	30
5	812955	106.133	40
5	814049	106.3	50
5	815607	106.5	60
5	817045	106.7	70
5	818495	106.9	80
5	819971	107.1	90
5	820955	107.3	100
5	822592	107.5	110
5	824144	107.7	120
5	825762	107.9	130
5	827281	108.1	140
5	828416	108.3	150
5	831882	108.733	160
5	831882	108.733	170
5	832974	108.9	180
5	834576	109.1	190
5	835865	109.3	200
5	837222	109.5	210
5	838924	109.7	220
5	840356	109.9	230
5	841840	110.1	240
5	843280	110.3	250
5	844720	110.5	260
5	846161	110.7	270
5	847610	110.9	280
5	849094	111.1	290
5	852233	111.533	300
5	852233	111.533	310
5	854987	112.022	320
5	854987	112.022	330
5	855709	112.1	340
5	857845	112.3	350
5	859289	112.5	360
5	860731	112.7	370
5	862173	112.9	380
5	863655	113.1	390
5	864912	113.3	400
5	866543	113.5	410
5	867985	113.7	420
5	869423	113.9	430
5	870728	114.1	440
5	872369	114.3	450
5	873805	114.5	460
5	875247	114.7	470
5	876685	114.9	480
5	878016	115.1	490
5	879613	115.3	500
5	880734	115.5	500
5	880748	115.5	510
5	882441	115.7	520
5	884009	115.9	40
5	885495	116.1	50
5	886927	116.3	60
5	888365	116.5	70
5	889821	116.7	80
5	891261	116.9	90
5	892729	117.1	100
5	894183	117.3	110
5	895615	117.5	120
5	897053	117.7	130
5	900103	118.131	140
5	900103	118.131	150
5	901158	118.3	160
5	902910	118.5	170
5	904344	118.7	180
5	905792	118.9	190
5	907284	119.1	200
5	908716	119.3	210
5	910156	119.5	220
5	911598	119.7	230
5	913034	119.9	240
5	914530	120.1	250
5	917627	120.53	260
5	917627	120.53	270
5	918793	120.7	280
5	920309	120.9	290
5	921608	121.1	300
5	923253	121.3	310
5	924693	121.5	320
5	925980	121.7	330
5	927531	121.9	340
5	928910	122.1	350
5	930169	122.3	360
5	931603	122.5	370
5	933054	122.7	380
5	934881	122.9	390
5	936379	123.1	400
5	937825	123.3	410
5	939253	123.5	420
5	940695	123.7	430
5	942143	123.9	440
5	945298	124.33	450
5	945298	124.33	460
5	946468	124.5	470
5	947530	124.7	480
5	949307	124.9	490
5	950932	125.1	500
5	952372	125.3	510
5	953808	125.5	510
5	953822	125.5	520
5	955119	125.7	20
5	956754	125.9	30
5	958035	126.1	40
5	959690	126.3	50
5	961138	126.5	60
5	962576	126.7	70
5	963705	126.9	80
5	965396	127.1	90
5	968655	127.531	100
5	968655	127.531	110
5	969793	127.7	120
5	971323	127.9	130
5	972668	128.1	140
5	974234	128.3	150
5	975695	128.5	160
5	977147	128.7	170
5	978587	128.9	180
5	980067	129.1	190
5	981485	129.3	200
5	982588	129.5	210
5	983681	129.7	220
5	984776	129.9	230
5	985914	130.1	240
5	987015	130.3	250
5	988106	130.5	260
5	989201	130.7	270
5	990294	130.9	280
5	991441	131.1	290
5	993745	131.532	300
5	993745	131.532	310
5	994642	131.7	320
5	995847	131.9	330
5	996990	132.1	340
5	998087	132.3	350
5	999170	132.5	360
5	1000277	132.7	370
5	1001370	132.9	380
5	1003726	133.333	390
5	1004947	133.563	400
5	1004947	133.563	410
5	1005682	133.7	420
5	1006937	133.9	430
5	1009335	134.341	440
5	1009335	134.341	450
5	1010144	134.5	460
5	1011383	134.7	470
5	1012331	134.9	480
5	1013447	135.1	490
5	1014403	135.3	500
5	1015578	135.5	500
5	1015591	135.5	510
5	1016816	135.7	20
5	1018096	135.9	30
5	1019237	136.1	40
5	1020336	136.3	50
5	1021276	136.5	60
5	1022181	136.7	70
5	1024898	137.132	80
5	1024898	137.132	90
5	1026977	137.529	100
5	1026977	137.529	110
5	1027889	137.7	120
5	1029042	137.9	130
5	1030364	138.1	140
5	1031494	138.3	150
5	1032587	138.5	160
5	1033666	138.7	170
5	1034771	138.9	180
5	1035918	139.1	190
5	1037009	139.3	200
5	1038104	139.5	210
5	1039189	139.7	220
5	1040139	139.9	230
5	1041411	140.1	240
5	1043759	140.533	250
5	1043759	140.533	260
5	1045822	140.934	270
5	1045822	140.934	280
5	1046736	141.1	290
5	1049314	141.529	300
5	1049314	141.529	310
5	1050247	141.7	320
5	1051281	141.9	330
5	1052560	142.1	340
5	1054891	142.531	350
5	1054891	142.531	360
5	1055800	142.7	370
5	1056846	142.9	380
5	1058110	143.1	390
5	1059249	143.3	400
5	1060340	143.5	410
5	1061431	143.7	420
5	1062532	143.9	430
5	1063679	144.1	440
5	1064762	144.3	450
5	1065857	144.5	460
5	1066956	144.7	470
5	1068047	144.9	480
5	1069200	145.1	490
5	1070285	145.3	500
5	1071372	145.5	500
5	1071385	145.5	510
5	1072510	145.7	20
5	1073595	145.9	30
5	1074588	146.1	40
5	1075822	146.3	50
5	1076940	146.5	60
5	1078031	146.7	70
5	1079132	146.9	80
5	1080273	147.1	90
5	1081364	147.3	100
5	1082457	147.5	110
5	1083551	147.7	120
5	1084639	147.9	130
5	1085651	148.1	140
5	1086881	148.3	150
5	1087984	148.5	160
5	1089089	148.7	170
5	1090176	148.9	180
5	1091315	149.1	190
5	1092426	149.3	200
5	1093503	149.5	210
5	1094301	149.7	220
5	1095599	149.9	230
5	1096701	150.1	240
5	1097635	150.3	250
5	1098702	150.5	260
5	1099789	150.7	270
5	1101085	150.9	280
5	1103660	151.33	290
5	1103660	151.33	300
5	1105878	151.73	310
5	1105878	151.73	320
5	1106823	151.9	330
5	1108042	152.1	340
5	1110332	152.529	350
5	1110332	152.529	360
5	1111255	152.7	370
5	1112444	152.9	380
5	1113585	153.1	390
5	1114535	153.3	400
5	1115783	153.5	410
5	1118117	153.933	420
5	1118117	153.933	430
5	1119030	154.1	440
5	1120090	154.3	450
5	1121320	154.5	460
5	1122302	154.7	470
5	1123516	154.9	480
5	1124689	155.1	490
5	1125787	155.3	500
5	1126566	155.5	500
5	1126579	155.5	510
5	1127758	155.7	30
5	1129102	155.9	40
5	1130267	156.1	50
5	1132016	156.534	60
5	1132016	156.534	70
5	1132973	156.7	80
5	1134594	156.9	90
5	1135708	157.1	100
5	1136924	157.3	110
5	1138061	157.5	120
5	1138837	157.7	130
5	1140147	157.9	140
5	1141396	158.1	150
5	1142495	158.3	160
5	1143588	158.5	170
5	1144689	158.7	180
5	1145788	158.9	190
5	1146925	159.1	200
5	1148014	159.3	210
5	1148962	159.5	220
5	1150182	159.7	230
5	1152550	160.129	240
5	1152550	160.129	250
5	1153485	160.3	260
5	1154662	160.5	270
5	1155759	160.7	280
5	1156541	160.9	290
5	1159218	161.331	300
5	1160447	161.561	310
5	1160447	161.561	320
5	1161196	161.7	330
5	1162445	161.9	340
5	1163582	162.1	350
5	1164532	162.3	360
5	1165747	162.5	370
5	1166572	162.7	380
5	1167872	162.9	390
5	1169131	163.1	400
5	1170220	163.3	410
5	1171170	163.5	420
5	1172384	163.7	430
5	1173523	163.9	440
5	1174662	164.1	450
5	1175750	164.3	460
5	1176858	164.5	470
5	1177947	164.7	480
5	1179048	164.9	490
5	1180183	165.1	500
5	1181272	165.3	510
5	1182218	165.5	510
5	1182231	165.5	520
5	1183002	165.7	20
5	1184350	165.9	30
5	1185786	166.1	40
5	1186890	166.3	50
5	1187666	166.5	60
5	1188970	166.7	70
5	1190177	166.9	80
5	1191330	167.1	90
5	1192423	167.3	100
5	1193522	167.5	110
5	1194615	167.7	120
5	1196953	168.131	130
5	1196953	168.131	140
5	1197872	168.3	150
5	1199063	168.5	160
5	1200152	168.7	170
5	1201249	168.9	180
5	1202083	169.1	190
5	1203393	169.3	200
5	1204588	169.5	210
5	1205695	169.7	220
5	1206792	169.9	230
5	1207622	170.1	240
5	1208920	170.3	250
5	1210139	170.5	260
5	1211224	170.7	270
5	1212176	170.9	280
5	1214230	171.329	290
5	1214230	171.329	300
5	1215417	171.5	310
5	1216794	171.7	320
5	1219124	172.129	330
5	1219124	172.129	340
5	1220053	172.3	350
5	1221091	172.5	360
5	1222323	172.7	370
5	1223436	172.9	380
5	1224577	173.1	390
5	1225670	173.3	400
5	1226460	173.5	410
5	1227766	173.7	420
5	1228973	173.9	430
5	1230116	174.1	440
5	1232428	174.534	450
5	1232428	174.534	460
5	1233303	174.7	470
5	1234510	174.9	480
5	1235659	175.1	490
5	1236760	175.3	500
5	1237508	175.5	500
5	1237520	175.5	510
5	1238284	175.7	520
5	1238877	175.9	530
5	1239820	176.1	540
5	1240583	176.3	550
5	1243287	179.288	560
5	1243287	179.288	570
5	1243287	179.288	580
5	1251083	182.622	590
5	1251083	182.622	600
5	1260295	182.91	610
5	1260295	182.91	620
5	1260295	182.91	630
5	1260295	182.91	640
5	1266310	183.197	650
5	1266310	183.197	660
5	1266310	183.197	670
5	1266310	183.197	680
5	1270070	183.485	690
5	1270070	183.485	700
5	1270070	183.485	710
5	1270070	183.485	720
5	1274013	183.774	730
5	1274013	183.774	740
5	1274013	183.774	750
5	1274013	183.774	760
5	1274013	183.774	770
5	1274013	183.774	780
5	1274013	183.774	790
5	1274013	183.774	800
5	1274013	183.774	810
5	1274013	183.774	820
5	1274013	183.774	830
5	1274013	183.774	840
5	1274013	183.774	850
5	1274013	183.774	860
5	1274013	183.774	870
5	1274013	183.774	880
5	1274013	183.774	890
5	1274013	183.774	900
5	1274013	183.774	910
5	1274013	183.774	920
5	1279544	183.9	930
5	1283791	184.1	940
5	1286249	184.3	950
5	1288298	184.5	960
5	1290237	184.7	970
5	1297434	184.9	980
5	1303105	185.1	990
5	1312623	185.3	1000
5	1321291	185.5	1000
5	1321303	185.5	1010
5	1323245	185.7	1020
5	1325874	185.9	1030
3	5592	10.1	30
3	7499	10.3	40
3	9288	10.5	50
3	11067	10.7	60
3	14291	11.083	70
3	14528	11.1	80
3	16272	11.3	90
3	18014	11.5	100
3	19480	11.7	110
3	21244	11.9	120
3	22818	12.1	130
3	24540	12.3	140
3	26104	12.5	150
3	27836	12.7	160
3	29211	12.9	170
3	31932	13.1	180
3	34624	13.3	190
3	36417	13.5	200
3	37899	13.7	210
3	41301	14.086	220
3	45025	14.564	230
3	45025	14.564	240
3	45025	14.564	250
3	46285	14.7	260
3	48133	14.9	270
3	49911	15.1	280
3	51483	15.3	290
3	54044	15.5	290
3	54059	15.5	300
3	56077	15.7	20
3	59612	16.082	30
3	59855	16.1	40
3	61807	16.3	50
3	63602	16.5	60
3	65373	16.7	70
3	66657	16.9	80
3	68363	17.1	90
3	70442	17.3	100
3	72497	17.5	110
3	74402	17.7	120
3	76191	17.9	130
3	78018	18.1	140
3	79500	18.3	150
3	81490	18.5	160
3	83377	18.7	170
3	84907	18.9	180
3	86121	19.1	190
3	88060	19.3	200
3	90564	19.5	210
3	93524	19.882	220
3	93743	19.9	230
3	94869	20.1	240
3	96418	20.3	250
3	100548	20.682	260
3	100781	20.7	270
3	104224	21.083	280
3	104451	21.1	290
3	106423	21.3	300
3	108696	21.5	310
3	110302	21.7	320
3	112294	21.9	330
3	113936	22.1	340
3	115417	22.3	350
3	116442	22.5	360
3	119154	22.7	370
3	121449	22.9	380
3	123298	23.1	390
3	125071	23.3	400
3	126856	23.5	410
3	128639	23.7	420
3	130428	23.9	430
3	135238	24.562	440
3	135238	24.562	450
3	135238	24.562	460
3	136571	24.7	470
3	139186	24.9	480
3	140737	25.1	490
3	141895	25.3	500
3	143024	25.5	500
3	145753	25.683	510
3	146026	25.7	50
3	148573	25.9	60
3	150428	26.1	70
3	152203	26.3	80
3	153994	26.5	90
3	155769	26.7	100
3	157311	26.9	110
3	158620	27.1	120
3	160579	27.3	130
3	162684	27.5	140
3	164676	27.7	150
3	166361	27.9	160
3	168404	28.1	170
3	170299	28.3	180
3	171825	28.5	190
3	173299	28.7	200
3	175562	28.9	210
3	177539	29.1	220
3	179320	29.3	230
3	181087	29.5	240
3	182894	29.7	250
3	184675	29.9	260
3	186502	30.1	270
3	187776	30.3	280
3	189197	30.5	290
3	190655	30.7	300
3	192617	30.9	310
3	195081	31.1	320
3	196773	31.3	330
3	199036	31.5	340
3	200698	31.7	350
3	201977	31.9	360
3	204286	32.1	370
3	206430	32.3	380
3	208217	32.5	390
3	210000	32.7	400
3	211783	32.9	410
3	213606	33.1	420
3	215391	33.3	430
3	217190	33.5	440
3	218963	33.7	450
3	220750	33.9	460
3	222585	34.1	470
3	224368	34.3	480
3	225958	34.5	490
3	227953	34.7	500
3	229426	34.9	510
3	231462	35.1	520
3	233367	35.3	530
3	235144	35.5	530
3	235159	35.5	540
3	237010	35.7	20
3	238799	35.9	30
3	240626	36.1	40
3	242417	36.3	50
3	247667	36.963	60
3	247667	36.963	70
3	247667	36.963	80
3	249188	37.1	90
3	251427	37.3	100
3	252724	37.5	110
3	254927	37.7	120
3	256822	37.9	130
3	260060	38.284	140
3	260289	38.3	150
3	262218	38.5	160
3	263833	38.7	170
3	267252	39.082	180
3	267487	39.1	190
3	269180	39.3	200
3	270656	39.5	210
3	274456	39.884	220
3	276232	40.082	230
3	276508	40.1	240
3	278467	40.3	250
3	280269	40.5	260
3	282048	40.7	270
3	283517	40.9	280
3	285562	41.1	290
3	287147	41.3	300
3	288429	41.5	310
3	290950	41.7	320
3	292856	41.9	330
3	294175	42.1	340
3	295854	42.3	350
3	298236	42.5	360
3	299819	42.7	370
3	301104	42.9	380
3	303620	43.1	390
3	306365	43.483	400
3	306666	43.5	410
3	308491	43.7	420
3	310873	43.9	430
3	312775	44.1	440
3	314552	44.3	450
3	316076	44.5	460
3	317367	44.7	470
3	319574	44.9	480
3	320911	45.1	490
3	322737	45.3	500
3	325106	45.5	500
3	325121	45.5	510
3	328548	45.883	30
3	328839	45.9	40
3	330651	46.1	50
3	332139	46.3	60
3	333363	46.5	70
3	337821	46.889	80
3	338034	46.9	90
3	339658	47.1	100
3	340912	47.3	110
3	342371	47.5	120
3	344335	47.7	130
3	346859	47.9	140
3	349071	48.1	150
3	350538	48.3	160
3	352009	48.5	170
3	353748	48.7	180
3	355215	48.9	190
3	357768	49.1	200
3	359931	49.3	210
3	361734	49.5	220
3	363318	49.7	230
3	365310	49.9	240
3	366829	50.1	250
3	368300	50.3	260
3	370676	50.5	270
3	372528	50.7	280
3	374311	50.9	290
3	376140	51.1	300
3	378756	51.482	310
3	378991	51.5	320
3	381402	51.7	330
3	383328	51.9	340
3	385159	52.1	350
3	386643	52.3	360
3	388629	52.5	370
3	390337	52.7	380
3	392333	52.9	390
3	394152	53.1	400
3	395949	53.3	410
3	397732	53.5	420
3	399509	53.7	430
3	401107	53.9	440
3	403137	54.1	450
3	404932	54.3	460
3	406701	54.5	470
3	408178	54.7	480
3	409647	54.9	490
3	413441	55.282	500
3	413678	55.3	510
3	415728	55.5	510
3	415745	55.5	520
3	417596	55.7	20
3	419385	55.9	30
3	420900	56.1	40
3	422058	56.3	50
3	424583	56.5	60
3	427847	56.883	70
3	428050	56.9	80
3	430245	57.1	90
3	432032	57.3	100
3	434610	57.684	110
3	434831	57.7	120
3	438856	58.082	130
3	439111	58.1	140
3	441037	58.3	150
3	442573	58.5	160
3	444046	58.7	170
3	446302	58.9	180
3	448285	59.1	190
3	450072	59.3	200
3	451847	59.5	210
3	453636	59.7	220
3	455415	59.9	230
3	457244	60.1	240
3	459033	60.3	250
3	460828	60.5	260
3	463741	60.884	270
3	463936	60.9	280
3	466123	61.1	290
3	467839	61.3	300
3	469825	61.5	310
3	471620	61.7	320
3	473405	61.9	330
3	475234	62.1	340
3	477011	62.3	350
3	478810	62.5	360
3	480595	62.7	370
3	483485	63.081	380
3	485035	63.296	390
3	485203	63.3	400
3	487405	63.5	410
3	489498	63.7	420
3	490842	63.9	430
3	492038	64.1	440
3	494062	64.3	450
3	495966	64.5	460
3	497892	64.7	470
3	499578	64.9	480
3	501781	65.1	490
3	503823	65.3	500
3	505297	65.5	500
3	505312	65.5	510
3	507746	65.7	40
3	511027	66.081	50
3	511288	66.1	60
3	514081	66.489	70
3	514296	66.5	80
3	516431	66.7	90
3	518065	66.9	100
3	519839	67.1	110
3	521395	67.3	120
3	523456	67.5	130
3	525628	67.7	140
3	527734	67.9	150
3	529553	68.1	160
3	531350	68.3	170
3	533135	68.5	180
3	534918	68.7	190
3	536705	68.9	200
3	538223	69.1	210
3	540217	69.3	220
3	541865	69.5	230
3	543329	69.7	240
3	545586	69.9	250
3	546991	70.1	260
3	548145	70.3	270
3	550662	70.5	280
3	552646	70.7	290
3	554650	70.9	300
3	556581	71.1	310
3	558067	71.3	320
3	560065	71.5	330
3	561644	71.7	340
3	562800	71.9	350
3	564569	72.1	360
3	567405	72.481	370
3	567690	72.5	380
3	569448	72.7	390
3	572019	73.085	400
3	573386	73.281	410
3	573648	73.3	420
3	575280	73.5	430
3	576720	73.7	440
3	578168	73.9	450
3	579648	74.1	460
3	581100	74.3	470
3	582534	74.5	480
3	583781	74.7	490
3	585416	74.9	500
3	588567	75.373	510
3	588567	75.373	520
3	589518	75.5	520
3	589532	75.5	530
3	591310	75.7	20
3	593595	76.082	30
3	593776	76.1	40
3	596752	76.481	50
3	596995	76.5	60
3	598588	76.7	70
3	600032	76.9	80
3	601514	77.1	90
3	602960	77.3	100
3	604142	77.5	110
3	605791	77.7	120
3	607305	77.9	130
3	608799	78.1	140
3	610235	78.3	150
3	611417	78.5	160
3	614210	78.882	170
3	614445	78.9	180
3	616081	79.1	190
3	617217	79.3	200
3	618864	79.5	210
3	621492	79.882	220
3	621719	79.9	230
3	623344	80.1	240
3	625852	80.481	250
3	626097	80.5	260
3	628609	80.886	270
3	628776	80.9	280
3	630291	81.1	290
3	631529	81.3	300
3	633378	81.5	310
3	634754	81.7	320
3	636365	81.9	330
3	637973	82.1	340
3	639411	82.3	350
3	641945	82.687	360
3	643320	82.883	370
3	643555	82.9	380
3	645226	83.1	390
3	646687	83.3	400
3	648119	83.5	410
3	649307	83.7	420
3	650950	83.9	430
3	652221	84.1	440
3	653866	84.3	450
3	655414	84.5	460
3	656870	84.7	470
3	658291	84.9	480
3	659782	85.1	490
3	661218	85.3	500
3	662339	85.5	500
3	662353	85.5	510
3	663863	85.7	30
3	665610	85.9	40
3	667102	86.1	50
3	668546	86.3	60
3	669982	86.5	70
3	671428	86.7	80
3	673722	87.086	90
3	673899	87.1	100
3	675800	87.3	110
3	677018	87.5	120
3	678667	87.7	130
3	679931	87.9	140
3	681627	88.1	150
3	682961	88.3	160
3	685682	88.684	170
3	685895	88.7	180
3	687473	88.9	190
3	688984	89.1	200
3	690113	89.3	210
3	691504	89.5	220
3	693136	89.7	230
3	695868	90.086	240
3	696033	90.1	250
3	697709	90.3	260
3	700264	90.685	270
3	700479	90.7	280
3	701783	90.9	290
3	704398	91.284	300
3	704697	91.3	310
3	706469	91.5	320
3	707931	91.7	330
3	709365	91.9	340
3	710556	92.1	350
3	712203	92.3	360
3	713755	92.5	370
3	715193	92.7	380
3	716647	92.9	390
3	718122	93.1	400
3	719309	93.3	410
3	720938	93.5	420
3	722478	93.7	430
3	723918	93.9	440
3	725221	94.1	450
3	726846	94.3	460
3	728298	94.5	470
3	729740	94.7	480
3	731168	94.9	490
3	732341	95.1	500
3	734000	95.3	510
3	735544	95.5	510
3	735558	95.5	520
3	737042	95.7	20
3	738496	95.9	30
3	739978	96.1	40
3	741414	96.3	50
3	742852	96.5	60
3	744298	96.7	70
3	745730	96.9	80
3	747214	97.1	90
3	748656	97.3	100
3	750096	97.5	110
3	751276	97.7	120
3	752883	97.9	130
3	754501	98.1	140
3	755925	98.3	150
3	757060	98.5	160
3	758134	98.7	170
3	760017	98.9	180
3	761783	99.1	190
3	762961	99.3	200
3	764310	99.5	210
3	766048	99.7	220
3	767604	99.9	230
3	769086	100.1	240
3	770528	100.3	250
3	771964	100.5	260
3	773408	100.7	270
3	774848	100.9	280
3	776340	101.1	290
3	777774	101.3	300
3	779214	101.5	310
3	781587	101.886	320
3	781754	101.9	330
3	783558	102.1	340
3	785048	102.3	350
3	786488	102.5	360
3	787912	102.7	370
3	789360	102.9	380
3	791765	103.283	390
3	791942	103.3	400
3	793733	103.5	410
3	795182	103.7	420
3	796433	103.9	430
3	798124	104.1	440
3	799562	104.3	450
3	800744	104.5	460
3	802379	104.7	470
3	803925	104.9	480
3	805389	105.1	490
3	806835	105.3	500
3	808269	105.5	500
3	808283	105.5	510
3	809771	105.7	20
3	811203	105.9	30
3	812435	106.1	40
3	814048	106.3	50
3	815606	106.5	60
3	817044	106.7	70
3	818494	106.9	80
3	820775	107.284	90
3	822401	107.487	100
3	823944	107.686	110
3	824143	107.7	120
3	825761	107.9	130
3	827280	108.1	140
3	828415	108.3	150
3	830062	108.5	160
3	831358	108.7	170
3	832973	108.9	180
3	835663	109.286	190
3	835864	109.3	200
3	837221	109.5	210
3	838923	109.7	220
3	840355	109.9	230
3	841839	110.1	240
3	843279	110.3	250
3	844719	110.5	260
3	846160	110.7	270
3	847609	110.9	280
3	849093	111.1	290
3	850332	111.3	300
3	851715	111.5	310
3	853330	111.7	320
3	854317	111.9	330
3	855708	112.1	340
3	857844	112.3	350
3	859288	112.5	360
3	860730	112.7	370
3	862172	112.9	380
3	863654	113.1	390
3	864911	113.3	400
3	866542	113.5	410
3	867984	113.7	420
3	869422	113.9	430
3	870727	114.1	440
3	872368	114.3	450
3	873804	114.5	460
3	875246	114.7	470
3	877796	115.082	480
3	878015	115.1	490
3	879612	115.3	500
3	880733	115.5	500
3	880747	115.5	510
3	882440	115.7	30
3	884008	115.9	40
3	885494	116.1	50
3	886926	116.3	60
3	888364	116.5	70
3	889820	116.7	80
3	891260	116.9	90
3	892728	117.1	100
3	894182	117.3	110
3	895614	117.5	120
3	897052	117.7	130
3	898500	117.9	140
3	899716	118.1	150
3	901157	118.3	160
3	902909	118.5	170
3	904343	118.7	180
3	905791	118.9	190
3	907283	119.1	200
3	908715	119.3	210
3	910155	119.5	220
3	911597	119.7	230
3	913033	119.9	240
3	914529	120.1	250
3	915965	120.3	260
3	917135	120.5	270
3	918792	120.7	280
3	920308	120.9	290
3	921607	121.1	300
3	923252	121.3	310
3	925784	121.687	320
3	925979	121.7	330
3	928710	122.086	340
3	928909	122.1	350
3	930168	122.3	360
3	931602	122.5	370
3	933053	122.7	380
3	934880	122.9	390
3	936378	123.1	400
3	937824	123.3	410
3	939252	123.5	420
3	940694	123.7	430
3	943242	124.082	440
3	943473	124.1	450
3	944802	124.3	460
3	947348	124.684	470
3	947529	124.7	480
3	949306	124.9	490
3	950931	125.1	500
3	952371	125.3	510
3	953807	125.5	510
3	953821	125.5	520
3	955118	125.7	20
3	956753	125.9	30
3	958034	126.1	40
3	959689	126.3	50
3	961137	126.5	60
3	962575	126.7	70
3	963704	126.9	80
3	965395	127.1	90
3	966642	127.3	100
3	968041	127.5	110
3	969792	127.7	120
3	972454	128.085	130
3	972667	128.1	140
3	974233	128.3	150
3	975694	128.5	160
3	977146	128.7	170
3	978586	128.9	180
3	980066	129.1	190
3	981484	129.3	200
3	982587	129.5	210
3	983680	129.7	220
3	984775	129.9	230
3	985913	130.1	240
3	987014	130.3	250
3	988105	130.5	260
3	989200	130.7	270
3	990293	130.9	280
3	991440	131.1	290
3	992531	131.3	300
3	993366	131.5	310
3	994641	131.7	320
3	995846	131.9	330
3	996989	132.1	340
3	998086	132.3	350
3	999169	132.5	360
3	1000276	132.7	370
3	1001369	132.9	380
3	1002506	133.1	390
3	1003329	133.3	400
3	1004372	133.5	410
3	1005681	133.7	420
3	1006936	133.9	430
3	1008081	134.1	440
3	1008906	134.3	450
3	1010143	134.5	460
3	1012154	134.885	470
3	1013266	135.085	480
3	1013446	135.1	490
3	1015449	135.483	500
3	1015577	135.5	500
3	1016596	135.682	510
3	1016815	135.7	20
3	1018095	135.9	30
3	1019236	136.1	40
3	1021109	136.488	50
3	1021275	136.5	60
3	1022180	136.7	70
3	1023530	136.9	80
3	1024515	137.1	90
3	1025800	137.3	100
3	1027682	137.691	110
3	1028850	137.885	120
3	1029041	137.9	130
3	1030363	138.1	140
3	1031493	138.3	150
3	1032586	138.5	160
3	1033665	138.7	170
3	1034770	138.9	180
3	1035917	139.1	190
3	1037008	139.3	200
3	1038103	139.5	210
3	1039968	139.885	220
3	1040138	139.9	230
3	1041410	140.1	240
3	1042533	140.3	250
3	1043364	140.5	260
3	1044625	140.7	270
3	1046533	141.084	280
3	1046735	141.1	290
3	1048094	141.3	300
3	1048959	141.5	310
3	1051108	141.883	320
3	1051280	141.9	330
3	1052559	142.1	340
3	1053362	142.3	350
3	1054404	142.5	360
3	1056679	142.888	370
3	1056845	142.9	380
3	1058109	143.1	390
3	1059248	143.3	400
3	1060339	143.5	410
3	1061430	143.7	420
3	1062531	143.9	430
3	1063678	144.1	440
3	1064761	144.3	450
3	1065856	144.5	460
3	1066955	144.7	470
3	1068046	144.9	480
3	1069199	145.1	490
3	1070284	145.3	500
3	1071371	145.5	500
3	1071384	145.5	510
3	1072509	145.7	20
3	1074422	146.084	30
3	1074587	146.1	40
3	1075821	146.3	50
3	1076939	146.5	60
3	1078030	146.7	70
3	1079131	146.9	80
3	1080272	147.1	90
3	1081363	147.3	100
3	1082456	147.5	110
3	1083550	147.7	120
3	1085470	148.084	130
3	1085650	148.1	140
3	1086880	148.3	150
3	1087983	148.5	160
3	1089088	148.7	170
3	1090175	148.9	180
3	1091314	149.1	190
3	1092425	149.3	200
3	1093502	149.5	210
3	1094300	149.7	220
3	1096528	150.083	230
3	1096700	150.1	240
3	1097634	150.3	250
3	1098701	150.5	260
3	1099788	150.7	270
3	1101084	150.9	280
3	1102466	151.1	290
3	1103291	151.3	300
3	1104576	151.5	310
3	1105515	151.7	320
3	1106822	151.9	330
3	1108041	152.1	340
3	1109136	152.3	350
3	1109961	152.5	360
3	1111254	152.7	370
3	1112443	152.9	380
3	1114344	153.282	390
3	1114534	153.3	400
3	1116552	153.683	410
3	1116730	153.7	420
3	1117716	153.9	430
3	1119921	154.284	440
3	1120089	154.3	450
3	1122145	154.697	460
3	1122301	154.7	470
3	1123515	154.9	480
3	1124688	155.1	490
3	1125786	155.3	500
3	1126565	155.5	500
3	1127621	155.684	510
3	1127757	155.7	30
3	1129101	155.9	40
3	1130266	156.1	50
3	1132326	156.579	60
3	1132326	156.579	70
3	1132972	156.7	80
3	1135533	157.085	90
3	1135707	157.1	100
3	1136923	157.3	110
3	1138060	157.5	120
3	1138836	157.7	130
3	1140146	157.9	140
3	1141395	158.1	150
3	1142494	158.3	160
3	1143587	158.5	170
3	1144688	158.7	180
3	1145787	158.9	190
3	1146924	159.1	200
3	1148815	159.496	210
3	1148961	159.5	220
3	1150181	159.7	230
3	1151314	159.9	240
3	1152183	160.1	250
3	1153484	160.3	260
3	1154661	160.5	270
3	1155758	160.7	280
3	1156540	160.9	290
3	1157900	161.1	300
3	1158843	161.3	310
3	1159894	161.5	320
3	1161195	161.7	330
3	1162444	161.9	340
3	1164363	162.286	350
3	1164531	162.3	360
3	1165746	162.5	370
3	1166571	162.7	380
3	1167871	162.9	390
3	1169130	163.1	400
3	1171007	163.488	410
3	1171169	163.5	420
3	1172383	163.7	430
3	1173522	163.9	440
3	1174661	164.1	450
3	1175749	164.3	460
3	1176857	164.5	470
3	1177946	164.7	480
3	1179047	164.9	490
3	1180182	165.1	500
3	1182055	165.486	510
3	1182217	165.5	510
3	1182845	165.683	520
3	1184181	165.882	20
3	1184349	165.9	30
3	1185785	166.1	40
3	1186889	166.3	50
3	1187665	166.5	60
3	1188969	166.7	70
3	1190176	166.9	80
3	1191329	167.1	90
3	1192422	167.3	100
3	1193521	167.5	110
3	1194614	167.7	120
3	1195701	167.9	130
3	1196576	168.1	140
3	1197871	168.3	150
3	1199062	168.5	160
3	1200151	168.7	170
3	1201248	168.9	180
3	1202082	169.1	190
3	1203392	169.3	200
3	1204587	169.5	210
3	1205694	169.7	220
3	1206791	169.9	230
3	1207621	170.1	240
3	1208919	170.3	250
3	1210138	170.5	260
3	1212011	170.884	270
3	1212175	170.9	280
3	1214580	171.372	290
3	1214580	171.372	300
3	1215416	171.5	310
3	1216793	171.7	320
3	1217884	171.9	330
3	1218757	172.1	340
3	1220920	172.484	350
3	1221090	172.5	360
3	1222322	172.7	370
3	1223435	172.9	380
3	1224576	173.1	390
3	1225669	173.3	400
3	1226459	173.5	410
3	1227765	173.7	420
3	1228972	173.9	430
3	1230115	174.1	440
3	1231206	174.3	450
3	1232041	174.5	460
3	1233302	174.7	470
3	1234509	174.9	480
3	1235658	175.1	490
3	1236759	175.3	500
3	1237507	175.5	500
3	1237519	175.5	510
3	1238741	175.883	520
3	1238876	175.9	530
3	1239819	176.1	540
3	1240582	176.3	550
3	1245225	180.17	560
3	1245696	180.352	570
3	1245696	180.352	580
3	1251378	182.665	590
3	1251378	182.665	600
3	1251378	182.665	610
3	1251378	182.665	620
3	1251378	182.665	630
3	1251378	182.665	640
3	1251378	182.665	650
3	1251378	182.665	660
3	1251378	182.665	670
3	1251378	182.665	680
3	1251378	182.665	690
3	1251378	182.665	700
3	1251378	182.665	710
3	1256120	182.847	720
3	1256120	182.847	730
3	1256120	182.847	740
3	1256120	182.847	750
3	1256120	182.847	760
3	1256120	182.847	770
3	1256120	182.847	780
3	1256120	182.847	790
3	1256120	182.847	800
3	1256120	182.847	810
3	1256120	182.847	820
3	1256120	182.847	830
3	1256120	182.847	840
3	1256120	182.847	850
3	1256120	182.847	860
3	1256120	182.847	870
3	1259944	182.9	880
3	1265153	183.1	890
3	1267874	183.3	900
3	1270665	183.5	910
3	1273327	183.7	920
3	1279543	183.9	930
3	1283790	184.1	940
3	1286248	184.3	950
3	1288297	184.5	960
3	1290236	184.7	970
3	1297433	184.9	980
3	1303104	185.1	990
3	1312622	185.3	1000
3	1321290	185.5	1000
3	1321302	185.5	1010
3	1323244	185.7	1020
3	1325873	185.9	1030
3	1329000	186.1	1040
3	1330162	186.3	1050
3	1330962	186.5	1060
3	1331772	186.7	1070
3	1332573	186.9	1080
3	1341506	195.5	110
3	1341517	195.5	120
3	1341517	195.5	130
3	1341517	195.5	140
3	1341517	195.5	150
3	1341517	195.5	160
3	1341517	195.5	170
3	1341517	195.5	180
3	1341517	195.5	190
3	1341517	195.5	200
3	1341517	195.5	210
3	1341517	195.5	220
3	1341517	195.5	230
3	1341517	195.5	240
3	1341517	195.5	250
3	1341517	195.5	260
3	1341517	195.5	270
3	1358001	195.852	280
3	1358001	195.852	290
3	1358001	195.852	300
3	1358001	195.852	310
3	1358001	195.852	320
3	1358001	195.852	330
3	1358001	195.852	340
3	1358001	195.852	350
3	1358001	195.852	360
3	1358001	195.852	370
3	1358001	195.852	380
3	1358001	195.852	390
3	1358001	195.852	400
3	1358001	195.852	410
3	1371171	196.206	420
3	1371171	196.206	430
3	1371171	196.206	440
3	1371171	196.206	450
3	1371171	196.206	460
3	1371171	196.206	470
3	1371171	196.206	480
3	1371171	196.206	490
3	1371171	196.206	500
3	1388083	196.561	510
3	1388083	196.561	520
3	1388083	196.561	530
3	1388083	196.561	540
3	1388083	196.561	550
3	1388083	196.561	560
3	1388083	196.561	570
3	1400644	197.052	580
3	1400644	197.052	590
3	1400644	197.052	600
3	1400644	197.052	610
3	1409239	197.451	620
3	1409239	197.451	630
3	1410376	197.5	640
3	1413363	197.7	650
15	1247180	181.024	560
15	1247833	181.312	570
15	1248791	181.6	580
15	1252955	182.693	590
15	1261604	182.983	600
15	1261604	182.983	610
15	1267270	183.27	620
15	1271391	183.558	630
15	1277239	183.847	640
15	1277239	183.847	650
15	1284394	184.134	660
15	1287477	184.423	670
15	1290595	184.711	680
15	1290595	184.711	690
15	1301714	185	700
15	1310385	185.289	710
15	1310385	185.289	720
15	1310385	185.289	730
15	1310385	185.289	740
15	1310385	185.289	750
15	1310385	185.289	760
15	1310385	185.289	770
15	1310385	185.289	780
15	1310385	185.289	790
15	1310385	185.289	800
15	1310385	185.289	810
15	1310385	185.289	820
15	1310385	185.289	830
15	1310385	185.289	840
15	1310385	185.289	850
15	1310385	185.289	860
15	1310385	185.289	870
15	1310385	185.289	880
15	1322334	185.578	890
15	1324701	185.865	900
15	1324701	185.865	910
15	1324701	185.865	920
15	1324701	185.865	930
15	1324701	185.865	940
15	1324701	185.865	950
15	1324701	185.865	960
15	1324701	185.865	970
15	1336653	190.9	970
15	1340943	195.383	10
15	1344912	195.565	20
15	1344912	195.565	30
15	1344912	195.565	40
15	1344912	195.565	50
15	1344912	195.565	60
15	1344912	195.565	70
15	1344912	195.565	80
15	1344912	195.565	90
15	1344912	195.565	100
15	1344912	195.565	110
15	1344912	195.565	120
15	1344912	195.565	130
15	1344912	195.565	140
15	1344912	195.565	150
15	1344912	195.565	160
15	1344912	195.565	170
15	1344912	195.565	180
15	1344912	195.565	190
15	1344912	195.565	200
15	1344912	195.565	210
15	1344912	195.565	220
15	1344912	195.565	230
15	1344912	195.565	240
15	1344912	195.565	250
15	1344912	195.565	260
15	1344912	195.565	270
15	1360300	195.885	280
15	1360300	195.885	290
15	1360300	195.885	300
15	1360300	195.885	310
15	1360300	195.885	320
15	1366241	196.073	330
15	1366241	196.073	340
15	1366241	196.073	350
15	1366241	196.073	360
15	1366241	196.073	370
15	1366241	196.073	380
15	1366241	196.073	390
15	1366241	196.073	400
15	1366241	196.073	410
15	1373170	196.24	420
15	1373170	196.24	430
15	1373170	196.24	440
15	1373170	196.24	450
15	1373170	196.24	460
15	1382098	196.423	470
15	1382098	196.423	480
15	1382098	196.423	490
15	1382098	196.423	500
15	1389925	196.597	510
15	1389925	196.597	520
15	1389925	196.597	530
15	1389925	196.597	540
15	1389925	196.597	550
15	1389925	196.597	560
15	1389925	196.597	570
15	1401979	197.089	580
15	1401979	197.089	590
15	1401979	197.089	600
15	1401979	197.089	610
15	1402583	197.1	620
15	1406666	197.3	630
15	1410377	197.5	640
15	1413364	197.7	650
15	1415545	197.9	660
15	1416763	198.1	670
15	1417538	198.3	680
15	1418319	198.5	690
15	1419092	198.7	700
15	1421013	200.9	700
15	1422962	203.439	120
15	1422962	203.439	130
15	1422962	203.439	140
15	1422962	203.439	150
15	1422962	203.439	160
15	1422962	203.439	170
15	1422962	203.439	180
15	1422962	203.439	190
15	1422962	203.439	200
15	1422962	203.439	210
15	1429334	203.678	220
15	1429334	203.678	230
15	1429334	203.678	240
15	1434759	203.915	250
15	1434759	203.915	260
15	1434759	203.915	270
15	1442856	204.23	280
15	1442856	204.23	290
15	1442856	204.23	300
15	1442856	204.23	310
15	1442856	204.23	320
15	1442856	204.23	330
15	1442856	204.23	340
15	1449375	204.473	350
15	1449375	204.473	360
15	1449375	204.473	370
15	1449375	204.473	380
15	1449375	204.473	390
15	1453898	204.738	400
15	1453898	204.738	410
15	1455655	204.9	420
15	1457846	205.1	430
15	1459227	205.3	440
15	1460326	205.5	450
15	1462582	205.942	460
15	1462582	205.942	470
15	1463607	206.1	480
15	1464766	206.3	490
15	1465552	206.5	500
15	1466762	206.7	510
15	1468075	206.9	520
15	1469218	207.1	530
15	1470002	207.3	540
15	1471218	207.5	550
15	1472525	207.7	560
15	1473620	207.9	570
15	1474761	208.1	580
15	1475848	208.3	590
15	1476640	208.5	600
15	1477828	208.7	610
15	1479167	208.9	620
15	1480308	209.1	630
15	1481403	209.3	640
15	1482496	209.5	650
15	1483589	209.7	660
15	1484375	209.9	670
15	1487008	210.339	680
15	1487008	210.339	690
15	1488017	210.5	700
15	1489148	210.7	710
15	1490233	210.9	710
15	1490244	210.9	720
15	1491395	211.1	730
15	1492495	211.3	740
15	1493596	211.5	750
15	1494689	211.7	760
15	1495780	211.9	770
15	1496929	212.1	780
15	1498024	212.3	790
15	1499118	212.5	800
15	1500215	212.7	100
15	1501320	212.9	110
15	1502457	213.1	120
15	1503556	213.3	130
15	1504645	213.5	140
15	1505435	213.7	150
15	1506659	213.9	160
15	1509161	214.341	170
15	1509161	214.341	180
15	1510158	214.5	190
15	1512776	215.038	200
15	1512776	215.038	210
15	1513236	215.1	220
15	1514656	215.3	230
15	1515749	215.5	240
15	1516844	215.7	250
15	1517941	215.9	260
15	1519086	216.1	270
15	1520173	216.3	280
15	1521272	216.5	290
15	1522367	216.7	300
15	1523462	216.9	310
15	1524607	217.1	320
15	1525700	217.3	330
15	1526791	217.5	340
15	1527888	217.7	350
15	1528691	217.9	360
15	1529649	218.1	370
15	1531057	218.3	380
15	1532350	218.5	390
15	1533445	218.7	400
15	1534233	218.9	410
15	1535485	219.1	420
15	1536495	219.3	430
15	1537681	219.5	440
15	1539014	219.7	450
15	1540115	219.9	460
15	1541254	220.1	470
15	1542347	220.3	480
15	1543446	220.5	490
15	1544541	220.7	500
15	1545622	220.9	500
15	1545633	220.9	510
15	1547837	221.341	440
15	1547837	221.341	450
15	1548626	221.5	460
15	1549900	221.7	470
15	1551211	221.9	480
15	1552352	222.1	490
15	1553445	222.3	500
15	1554539	222.5	510
15	1555646	222.7	100
15	1557970	223.149	110
15	1557970	223.149	120
15	1558909	223.3	130
15	1560088	223.5	140
15	1561185	223.7	150
15	1562278	223.9	160
15	1563417	224.1	170
15	1564514	224.3	180
15	1565609	224.5	190
15	1566696	224.7	200
15	1567490	224.9	210
15	1568716	225.1	220
15	1569765	225.3	230
15	1570996	225.5	240
15	1572267	225.7	250
15	1574848	226.355	260
15	1576414	226.634	270
15	1576414	226.634	280
15	1576414	226.634	290
15	1577249	226.7	300
15	1578655	226.9	310
15	1579889	227.1	320
15	1581224	227.3	330
15	1582321	227.5	340
15	1583410	227.7	350
15	1584511	227.9	360
15	1585650	228.1	370
15	1586745	228.3	380
15	1587834	228.5	390
15	1588643	228.7	400
15	1589651	228.9	410
15	1590590	229.1	420
15	1592096	229.3	430
15	1593147	229.5	440
15	1594374	229.7	450
15	1595649	229.9	460
15	1596790	230.1	470
15	1597883	230.3	480
15	1598978	230.5	490
15	1600071	230.7	500
15	1601160	230.9	500
15	1601171	230.9	510
15	1602322	231.1	500
15	1603414	231.3	510
15	1604521	231.5	460
15	1605606	231.7	470
15	1606398	231.9	480
15	1607652	232.1	490
15	1608967	232.3	500
15	1611227	232.738	90
15	1611227	232.738	100
15	1612235	232.9	110
15	1613418	233.1	120
15	1615562	233.541	130
15	1616901	233.785	140
15	1618187	234.024	150
15	1618187	234.024	160
15	1618787	234.1	170
15	1620128	234.3	180
15	1621231	234.5	190
15	1622324	234.7	200
15	1623427	234.9	210
15	1625716	235.338	220
15	1625716	235.338	230
15	1627928	235.738	240
15	1627928	235.738	250
15	1628938	235.9	260
15	1630123	236.1	270
15	1631218	236.3	280
15	1632317	236.5	290
15	1633410	236.7	300
15	1634495	236.9	310
15	1635346	237.1	320
15	1636571	237.3	330
15	1637850	237.5	340
15	1638947	237.7	350
15	1640044	237.9	360
15	1641177	238.1	370
15	1642278	238.3	380
15	1643373	238.5	390
[...]
14	7097694	983.734	0.234
14	7099479	983.933	0.233
14	7101294	984.131	0.231
14	7103081	984.332	0.232
14	7104867	984.532	0.232
14	7106700	984.809	0.309
14	7108442	985.008	0.308
14	7109919	985.131	0.231
14	7112126	985.335	0.235
14	7113918	985.608	0.308
14	7114944	985.731	0.231
14	7117056	986.01	0.31
14	7118475	986.215	0.315
14	7120028	986.41	0.31
14	7122204	986.534	0.234
14	7124638	986.731	0.231
14	7126121	986.931	0.231
14	7128001	987.131	0.231
14	7130423	987.409	0.309
14	7132022	987.608	0.308
14	7132952	987.734	0.234
14	7134212	987.931	0.231
14	7135880	988.132	0.232
14	7137001	988.331	0.231
14	7139426	988.535	0.235
14	7142212	988.733	0.233
14	7144469	988.932	0.232
14	7145938	989.132	0.232
14	7147767	989.333	0.233
14	7149170	989.533	0.233
14	7150188	989.732	0.232
14	7151668	989.932	0.232
14	7153331	990.134	0.234
14	7155086	990.331	0.231
14	7156747	990.609	0.309
14	7157743	990.732	0.232
14	7159018	990.932	0.232
14	7160165	991.134	0.234
14	7161268	991.334	0.234
14	7162349	991.531	0.231
14	7163570	991.813	0.313
14	7164366	991.931	0.231
14	7165692	992.132	0.232
14	7166669	992.333	0.233
14	7167447	992.532	0.232
14	7168907	992.733	0.233
14	7170102	992.934	0.234
14	7171239	993.133	0.233
14	7172447	993.409	0.309
14	7173269	993.534	0.234
14	7174530	993.732	0.232
14	7175639	993.934	0.234
14	7176774	994.132	0.232
14	7177857	994.331	0.231
14	7178958	994.532	0.232
14	7180050	994.731	0.231
14	7181160	994.935	0.235
14	7182295	995.132	0.232
14	7183383	995.331	0.231
14	7184377	995.536	0.236
14	7185037	995.733	0.233
14	7186230	995.933	0.233
14	7187780	996.136	0.236
14	7188871	996.408	0.308
14	7189450	996.535	0.235
14	7190664	996.732	0.232
14	7192086	996.932	0.232
14	7193434	997.133	0.233
14	7194528	997.331	0.231
14	7195623	997.532	0.232
14	7196727	997.736	0.236
14	7197815	997.933	0.233
14	7198962	998.133	0.233
14	7200161	998.409	0.309
14	7200982	998.535	0.235
14	7202249	998.731	0.231
14	7203346	998.932	0.232
14	7204490	999.132	0.232
14	7205590	999.332	0.232
14	7206694	999.534	0.234
14	7207569	999.74	0.24
14	7208286	999.941	0.241
14	7209737	1000.135	0.235
14	7211141	1000.332	0.232
14	7212245	1000.535	0.235
14	7213352	1000.739	0.239
14	7214311	1000.934	0.234
14	7215022	1001.132	0.232
14	7216931	1001.456	0.356
14	7217580	1001.531	0.231
14	7219026	1001.817	0.317
14	7219828	1001.932	0.232
14	7221163	1002.134	0.234
14	7222256	1002.335	0.235
14	7223339	1002.531	0.231
14	7224436	1002.731	0.231
14	7225695	1003.009	0.309
14	7226498	1003.131	0.231
14	7227796	1003.333	0.233
14	7228874	1003.531	0.231
14	7229980	1003.732	0.232
14	7231077	1003.932	0.232
14	7232216	1004.133	0.233
14	7233306	1004.332	0.232
14	7234412	1004.533	0.233
14	7235503	1004.733	0.233
14	7236592	1004.931	0.231
14	7237733	1005.132	0.232
14	7238927	1005.408	0.308
14	7239758	1005.533	0.233
14	7241020	1005.732	0.232
14	7242135	1005.934	0.234
14	7243272	1006.133	0.233
14	7244358	1006.331	0.231
14	7245459	1006.532	0.232
14	7246557	1006.735	0.235
14	7247527	1006.932	0.232
14	7248677	1007.209	0.309
14	7249764	1007.344	0.244
14	7250871	1007.532	0.232
14	7251968	1007.766	0.266
14	7253007	1007.932	0.232
14	7254352	1008.135	0.235
14	7255378	1008.409	0.309
14	7255942	1008.533	0.233
14	7257490	1008.731	0.231
14	7258760	1008.934	0.234
14	7259892	1009.131	0.231
14	7260999	1009.332	0.232
14	7262094	1009.532	0.232
14	7263202	1009.734	0.234
14	7264286	1009.931	0.231
14	7265431	1010.132	0.232
14	7266454	1010.409	0.309
14	7267498	1010.608	0.308
14	7268439	1010.731	0.231
14	7269862	1010.933	0.233
14	7270960	1011.294	0.394
14	7271838	1011.449	0.349
14	7272825	1011.534	0.234
14	7274199	1011.736	0.236
14	7274977	1011.932	0.232
14	7276368	1012.134	0.234
14	7277655	1012.332	0.232
14	7278838	1012.61	0.31
14	7279587	1012.808	0.308
14	7280390	1013.009	0.309
14	7281125	1013.208	0.308
14	7281719	1013.494	0.394
14	7287264	1017.485	4.185
14	7287275	1017.485	3.985
14	7287283	1017.485	3.785
14	7287291	1017.485	3.585
14	7287300	1017.485	3.385
14	7287384	1017.486	3.186
14	7292944	1018.054	3.154
14	7292993	1018.056	3.556
14	7292999	1018.056	3.356
14	7296687	1018.432	3.332
14	7296701	1018.432	3.132
14	7296713	1018.432	2.932
14	7309333	1019.508	3.808
14	7309342	1019.508	3.408
14	7309363	1019.508	2.808
14	7309371	1019.508	2.608
14	7309379	1019.508	2.408
14	7309397	1019.508	2.008
14	7309410	1019.508	1.608
14	7309441	1019.508	0.808
14	7309451	1019.508	0.608
14	7309605	1019.509	3.209
14	7309609	1019.509	3.009
14	7309629	1019.509	2.209
14	7309640	1019.509	1.809
14	7309653	1019.509	1.409
14	7309662	1019.509	1.209
14	7309669	1019.509	1.009
14	7309738	1019.51	3.61
42	6375391	892.964	50
42	6376798	893.324	50
42	6376798	893.324	50
42	6378703	893.684	50
42	6380542	894.063	50
42	6383247	894.433	60
42	6389130	894.795	70
42	6396258	895.156	80
42	6403944	895.517	90
42	6410783	895.877	100
42	6410783	895.877	110
42	6410783	895.877	120
42	6414564	896.237	130
42	6414564	896.237	140
42	6418614	896.596	150
42	6422307	896.956	160
42	6422307	896.956	170
42	6422307	896.956	180
42	6422307	896.956	190
42	6426763	897.317	200
42	6426763	897.317	210
42	6426763	897.317	220
42	6426763	897.317	230
42	6426763	897.317	240
42	6426763	897.317	250
42	6426763	897.317	260
42	6426763	897.317	270
42	6426763	897.317	280
42	6426763	897.317	290
42	6426763	897.317	300
42	6426763	897.317	310
42	6426763	897.317	320
42	6426763	897.317	330
42	6426763	897.317	340
42	6426763	897.317	350
42	6426763	897.317	360
42	6432849	897.5	370
42	6434708	897.7	380
42	6436537	897.9	390
42	6438379	898.1	400
42	6440210	898.3	410
42	6442240	898.5	420
42	6444029	898.7	430
42	6445810	898.9	440
42	6447048	899.1	450
42	6448448	899.3	460
42	6450434	899.5	470
42	6452100	899.7	480
42	6454609	899.9	490
42	6456690	900.1	500
42	6458459	900.3	510
42	6460252	900.5	520
42	6462041	900.7	530
42	6463826	900.9	540
42	6465658	901.1	550
42	6467140	901.3	560
42	6468987	901.5	570
42	6471054	901.7	580
42	6472839	901.9	590
42	6474674	902.1	600
42	6476451	902.3	610
42	6479722	902.7	610
42	6481016	902.859	620
42	6481016	902.859	630
42	6481492	902.9	640
42	6483700	903.1	650
42	6484900	903.3	120
42	6486307	903.5	130
42	6488508	903.7	140
42	6490303	903.9	150
42	6491754	904.1	160
42	6493957	904.3	170
42	6496348	904.5	180
42	6498127	904.7	190
42	6499910	904.9	200
42	6501471	905.1	210
42	6506060	905.659	220
42	6506060	905.659	230
42	6506537	905.7	240
42	6511775	906.259	250
42	6511775	906.259	260
42	6516928	906.921	270
42	6516928	906.921	280
42	6516928	906.921	290
42	6516928	906.921	300
42	6519234	907.1	310
42	6521585	907.3	320
42	6523182	907.5	330
42	6525181	907.7	340
42	6530296	908.425	350
42	6530296	908.425	360
42	6530296	908.425	370
42	6531593	908.5	380
42	6537151	909.06	390
42	6537151	909.06	400
42	6537597	909.1	410
42	6542507	909.658	420
42	6542507	909.658	430
42	6543000	909.7	440
42	6547978	910.263	450
42	6547978	910.263	460
42	6548397	910.3	470
42	6550261	910.5	480
42	6552096	910.7	490
42	6553878	910.9	500
42	6555764	911.1	510
42	6557811	911.3	510
42	6559336	911.5	460
42	6560943	911.7	470
42	6562628	911.9	480
42	6564315	912.1	490
42	6565660	912.3	500
42	6567663	912.5	510
42	6569867	912.7	510
42	6569880	912.7	520
42	6571363	912.9	510
42	6573647	913.1	520
42	6575377	913.3	120
42	6576863	913.5	130
42	6578587	913.7	140
42	6580027	913.9	150
42	6581516	914.1	160
42	6582950	914.3	170
42	6586247	914.858	180
42	6586247	914.858	190
42	6589495	915.259	200
42	6589495	915.259	210
42	6589910	915.3	220
42	6591718	915.5	230
42	6592848	915.7	240
42	6594059	915.9	250
42	6595567	916.1	260
42	6597304	916.3	270
42	6599028	916.5	280
42	6602414	917.058	290
42	6605057	917.417	300
42	6605057	917.417	310
42	6605057	917.417	320
42	6606090	917.5	330
42	6607840	917.7	340
42	6611455	918.259	350
42	6611455	918.259	360
42	6611860	918.3	370
42	6615824	918.86	380
42	6618273	919.218	390
42	6618273	919.218	400
42	6618273	919.218	410
42	6619260	919.3	420
42	6620731	919.5	430
42	6622040	919.7	440
42	6626152	920.262	450
42	6626152	920.262	460
42	6626517	920.3	470
42	6628332	920.5	480
42	6629782	920.7	490
42	6631220	920.9	500
42	6632393	921.1	510
42	6633885	921.3	510
42	6635348	921.5	450
42	6636604	921.7	460
42	6637943	921.9	470
42	6639590	922.1	480
42	6641218	922.3	490
42	6643823	922.7	490
42	6644849	922.859	490
42	6644849	922.859	500
42	6645298	922.9	510
42	6649276	923.458	110
42	6649276	923.458	120
42	6649700	923.5	130
42	6651779	923.7	140
42	6653225	923.9	150
42	6654426	924.1	160
42	6655924	924.3	170
42	6657329	924.5	180
42	6662005	925.159	190
42	6662005	925.159	200
42	6662005	925.159	210
42	6663324	925.3	220
42	6664922	925.5	230
42	6666362	925.7	240
42	6667215	925.9	250
42	6668791	926.1	260
42	6670768	926.3	270
42	6672214	926.5	280
42	6673650	926.7	290
42	6675088	926.9	300
42	6676574	927.1	310
42	6678014	927.3	320
42	6679452	927.5	330
42	6682780	928.059	340
42	6682780	928.059	350
42	6683157	928.1	360
42	6684612	928.3	370
42	6685715	928.5	380
42	6686795	928.7	390
42	6687906	928.9	400
42	6689045	929.1	410
42	6690144	929.3	420
42	6691233	929.5	430
42	6693349	930.067	440
42	6693349	930.067	450
42	6693686	930.1	460
42	6695699	930.3	470
42	6696814	930.5	480
42	6697903	930.7	490
42	6698692	930.9	500
42	6699878	931.1	510
42	6702479	931.664	450
42	6702479	931.664	460
42	6702796	931.7	470
42	6704212	931.9	480
42	6705735	932.1	490
42	6706540	932.3	500
42	6708428	932.7	500
42	6709159	932.858	490
42	6709159	932.858	500
42	6709550	932.9	510
42	6711342	933.1	520
42	6712441	933.3	120
42	6713540	933.5	130
42	6714629	933.7	140
42	6717249	934.26	150
42	6717249	934.26	160
42	6717605	934.3	170
42	6719079	934.5	180
42	6720174	934.7	190
42	6721269	934.9	200
42	6723902	935.461	210
42	6723902	935.461	220
42	6724233	935.5	230
42	6725713	935.7	240
42	6726810	935.9	250
42	6727953	936.1	260
42	6729046	936.3	270
42	6730135	936.5	280
42	6730954	936.7	290
42	6731975	936.9	300
42	6733185	937.1	310
42	6734160	937.3	320
42	6735376	937.5	330
42	6736831	937.7	340
42	6737928	937.9	350
42	6738789	938.1	360
42	6739812	938.3	370
42	6741283	938.5	380
42	6742096	938.7	390
42	6743121	938.9	400
42	6744644	939.1	410
42	6745739	939.3	420
42	6746522	939.5	430
42	6747492	939.7	440
42	6748706	939.9	450
42	6750209	940.1	460
42	6751308	940.3	470
42	6753844	941.026	480
42	6756251	941.384	420
42	6756251	941.384	430
42	6756251	941.384	440
42	6758855	941.744	450
42	6760771	942.106	460
42	6760771	942.106	470
42	6760771	942.106	480
42	6760771	942.106	490
42	6762435	942.3	500
42	6763604	942.5	510
42	6764406	942.7	510
42	6766277	943.063	500
42	6766277	943.063	510
42	6766615	943.1	520
42	6767792	943.3	140
42	6770436	943.863	150
42	6770436	943.863	160
42	6770760	943.9	170
42	6772212	944.1	180
42	6773687	944.3	190
42	6775973	944.859	200
42	6775973	944.859	210
42	6776396	944.9	220
42	6779671	945.458	230
42	6781263	945.824	240
42	6781263	945.824	250
42	6781263	945.824	260
42	6781951	945.9	270
42	6783526	946.1	280
42	6784901	946.3	290
42	6785998	946.5	300
42	6788604	947.059	310
42	6788604	947.059	320
42	6789017	947.1	330
42	6790476	947.3	340
42	6791565	947.5	350
42	6792354	947.7	360
42	6793499	947.9	370
42	6794918	948.1	380
42	6796013	948.3	390
42	6797114	948.5	400
42	6798209	948.7	410
42	6799306	948.9	420
42	6800441	949.1	430
42	6801540	949.3	440
42	6802633	949.5	450
42	6803728	949.7	460
42	6804815	949.9	470
42	6805960	950.1	480
42	6807061	950.3	490
42	6808150	950.5	500
42	6810762	951.058	510
42	6810762	951.058	520
42	6811151	951.1	530
42	6812611	951.3	440
42	6813702	951.5	450
42	6814797	951.7	460
42	6815898	951.9	470
42	6817041	952.1	480
42	6818134	952.3	490
42	6819229	952.5	500
42	6820307	952.7	500
42	6820319	952.7	510
42	6821425	952.9	510
42	6822570	953.1	520
42	6823379	953.3	120
42	6824398	953.5	130
42	6825883	953.7	140
42	6826976	953.9	150
42	6827478	954.1	160
42	6827910	954.3	170
42	6828342	954.5	180
42	6828776	954.7	190
42	6829207	954.9	200
42	6831987	958.488	210
42	6831987	958.488	220
42	6831987	958.488	230
42	6831987	958.488	240
42	6831987	958.488	250
42	6841048	960.986	260
42	6841048	960.986	270
42	6841048	960.986	280
42	6841048	960.986	290
42	6841048	960.986	300
42	6841048	960.986	310
42	6841048	960.986	320
42	6841048	960.986	330
42	6841048	960.986	340
42	6841048	960.986	350
42	6841048	960.986	360
42	6841048	960.986	370
42	6841048	960.986	380
42	6841048	960.986	390
42	6841048	960.986	400
42	6841048	960.986	410
42	6841048	960.986	420
42	6841048	960.986	430
42	6841048	960.986	440
42	6841048	960.986	450
42	6841048	960.986	460
42	6841048	960.986	470
42	6841048	960.986	480
42	6841048	960.986	490
42	6841048	960.986	500
42	6848253	961.1	510
42	6851714	961.3	520
42	6853232	961.5	530
42	6855683	961.7	540
42	6858276	961.9	550
42	6860021	962.1	560
42	6871037	962.7	560
42	6872558	962.728	570
42	6872558	962.728	580
42	6872558	962.728	590
42	6885294	963.552	600
42	6885294	963.552	610
42	6885294	963.552	620
42	6885294	963.552	630
42	6888901	963.7	640
42	6892024	963.9	650
42	6893867	964.1	660
42	6895667	964.3	670
42	6902410	964.5	680
42	6907782	964.7	690
42	6909807	964.9	700
42	6915379	965.529	710
42	6915379	965.529	720
42	6915379	965.529	730
42	6917083	965.7	740
42	6918751	965.9	750
42	6920194	966.1	760
42	6922559	966.3	770
42	6924474	966.5	780
42	6926399	966.7	790
42	6928111	966.9	800
42	6929944	967.1	810
42	6931831	967.3	820
42	6933823	967.5	830
42	6935532	967.7	840
42	6937531	967.9	850
42	6942042	968.1	860
42	6948327	968.3	870
42	6952006	968.5	880
42	6956910	968.7	890
42	6959969	968.9	900
42	6963908	969.1	910
42	6965546	969.3	920
42	6967419	969.5	930
42	6969622	969.7	940
42	6971171	969.9	950
42	6972697	970.1	960
42	6974832	970.3	970
42	6977691	970.5	980
42	6979225	970.7	990
42	6981136	970.9	1000
42	6983141	971.1	1010
42	6984928	971.3	460
42	6986713	971.5	470
42	6988486	971.7	480
42	6989963	971.9	490
42	6991474	972.1	500
42	6993738	972.3	510
42	6995702	972.5	520
42	6997311	972.7	520
42	6997322	972.7	530
42	6999122	972.9	510
42	7000894	973.1	520
42	7002810	973.3	220
42	7008121	973.929	230
42	7008121	973.929	240
42	7008121	973.929	250
42	7009629	974.1	260
42	7015205	974.73	270
42	7015205	974.73	280
42	7015205	974.73	290
42	7017194	974.9	300
42	7019121	975.1	310
42	7020773	975.3	320
42	7022215	975.5	330
42	7028326	976.128	340
42	7028326	976.128	350
42	7028326	976.128	360
42	7030031	976.3	370
42	7031746	976.5	380
42	7033711	976.7	390
42	7035504	976.9	400
42	7037163	977.1	410
42	7038940	977.3	420
42	7040927	977.5	430
42	7042397	977.7	440
42	7044114	977.9	450
42	7046039	978.1	460
42	7047765	978.3	470
42	7049954	978.5	480
42	7051749	978.7	490
42	7053532	978.9	500
42	7058861	979.533	480
42	7058861	979.533	490
42	7058861	979.533	500
42	7060352	979.7	510
42	7061930	979.9	460
42	7063724	980.1	470
42	7065286	980.3	480
42	7067484	980.5	490
42	7069845	980.7	500
42	7071641	980.9	510
42	7073478	981.1	430
42	7075101	981.3	440
42	7079903	981.928	450
42	7079903	981.928	460
42	7079903	981.928	470
42	7081450	982.1	480
42	7083947	982.3	490
42	7086090	982.5	500
42	7087853	982.7	500
42	7087864	982.7	510
42	7089393	982.9	510
42	7091144	983.1	520
42	7092935	983.3	220
42	7095137	983.5	230
42	7096914	983.7	240
42	7098703	983.9	250
42	7100530	984.1	260
42	7102311	984.3	270
42	7104106	984.5	280
42	7105895	984.7	290
42	7107229	984.9	300
42	7109209	985.1	310
42	7111336	985.3	320
42	7113125	985.5	330
42	7118033	986.131	340
42	7119523	986.374	350
42	7119523	986.374	360
42	7119523	986.374	370
42	7121314	986.5	380
42	7124005	986.7	390
42	7125488	986.9	400
42	7127003	987.1	410
42	7129253	987.3	420
42	7131054	987.5	430
42	7132541	987.7	440
42	7137017	988.332	450
42	7137017	988.332	460
42	7137017	988.332	470
42	7138893	988.5	480
42	7141373	988.7	490
42	7143765	988.9	500
42	7145454	989.1	510
42	7147048	989.3	490
42	7148642	989.5	500
42	7152939	990.131	450
42	7152939	990.131	460
42	7152939	990.131	470
42	7154422	990.3	480
42	7155956	990.5	490
42	7157235	990.7	500
42	7158516	990.9	510
42	7159647	991.1	520
42	7160748	991.3	530
42	7161849	991.5	540
42	7162937	991.7	550
42	7163866	991.9	560
42	7165187	992.1	570
42	7166284	992.3	580
42	7167106	992.5	590
42	7168310	992.7	590
42	7168321	992.7	600
42	7169590	992.9	210
42	7170729	993.1	220
42	7171830	993.3	230
42	7172755	993.5	240
42	7174030	993.7	250
42	7175121	993.9	260
42	7176266	994.1	270
42	7177353	994.3	280
42	7178454	994.5	290
42	7179547	994.7	300
42	7180644	994.9	310
42	7181779	995.1	320
42	7182884	995.3	330
42	7185057	995.741	340
42	7185057	995.741	350
42	7185849	995.9	360
42	7187186	996.1	370
42	7188445	996.3	380
42	7189093	996.5	390
42	7190282	996.7	400
42	7191539	996.9	410
42	7192925	997.1	420
42	7194028	997.3	430
42	7195109	997.5	440
42	7196208	997.7	450
42	7197303	997.9	460
42	7198442	998.1	470
42	7199543	998.3	480
42	7200464	998.5	490
42	7201743	998.7	500
42	7202840	998.9	510
42	7203978	999.1	520
42	7205085	999.3	490
42	7206178	999.5	500
42	7208038	999.939	360
42	7208038	999.939	370
42	7209237	1000.1	380
42	7210632	1000.3	390
42	7211727	1000.5	400
42	7212828	1000.7	410
42	7213915	1000.9	420
42	7216055	1001.339	430
42	7216055	1001.339	440
42	7217060	1001.5	450
42	7218389	1001.7	460
42	7219320	1001.9	470
42	7220651	1002.1	480
42	7221742	1002.3	490
42	7222835	1002.5	500
42	7223916	1002.7	500
42	7223927	1002.7	510
42	7225032	1002.9	200
42	7226007	1003.1	210
42	7227278	1003.3	220
42	7228377	1003.5	230
42	7229472	1003.7	240
42	7230567	1003.9	250
42	7231708	1004.1	260
42	7232799	1004.3	270
42	7233896	1004.5	280
42	7234991	1004.7	290
42	7236084	1004.9	300
42	7237233	1005.1	310
42	7238320	1005.3	320
42	7239247	1005.5	330
42	7240516	1005.7	340
42	7241611	1005.9	350
42	7242760	1006.1	360
42	7243853	1006.3	370
42	7244950	1006.5	380
42	7246045	1006.7	390
42	7247138	1006.9	400
42	7247998	1007.1	410
42	7249044	1007.3	420
42	7250483	1007.5	430
42	7251309	1007.7	440
42	7252539	1007.9	450
42	7253842	1008.1	460
42	7254933	1008.3	470
42	7255587	1008.5	480
42	7256993	1008.7	490
42	7258252	1008.9	500
42	7259390	1009.1	510
42	7260491	1009.3	490
42	7261588	1009.5	500
42	7262680	1009.7	510
42	7263789	1009.9	370
42	7264924	1010.1	380
42	7266019	1010.3	390
42	7266671	1010.5	400
42	7267905	1010.7	410
42	7269348	1010.9	420
42	7271236	1011.341	430
42	7271236	1011.341	440
42	7272281	1011.5	450
42	7273792	1011.7	460
42	7274628	1011.9	470
42	7275896	1012.1	480
42	7277153	1012.3	490
42	7278249	1012.5	500
42	7278987	1012.7	500
42	7278998	1012.7	510
42	7279756	1012.9	200
42	7280554	1013.1	210
42	7283023	1015.262	220
42	7285381	1017.377	230
42	7285381	1017.377	240
42	7285381	1017.377	250
42	7285381	1017.377	260
42	7285381	1017.377	270
42	7285381	1017.377	280
42	7291214	1017.946	290
42	7291214	1017.946	300
42	7291214	1017.946	310
42	7295335	1018.324	320
42	7295335	1018.324	330
42	7295335	1018.324	340
42	7303080	1019.4	350
42	7303080	1019.4	360
42	7303080	1019.4	370
42	7303080	1019.4	380
42	7303080	1019.4	390
42	7303080	1019.4	400
42	7303080	1019.4	410
42	7303080	1019.4	420
42	7303080	1019.4	430
42	7303080	1019.4	440
42	7303080	1019.4	450
42	7303080	1019.4	460
42	7303080	1019.4	470
42	7303080	1019.4	480
42	7303080	1019.4	490
42	7303080	1019.4	500
42	7303080	1019.4	510
42	7314912	1019.96	520
42	7314912	1019.96	530
42	7314912	1019.96	540
42	7314912	1019.96	550
48	7283605	1015.84	220
48	7286168	1017.414	230
48	7288653	1017.624	240
48	7290209	1017.832	250
48	7292734	1018.042	260
48	7294749	1018.249	270
48	7296949	1018.455	280
48	7296949	1018.455	290
48	7298436	1018.666	300
48	7299491	1018.873	310
48	7299491	1018.873	320
48	7301060	1019.084	330
48	7301060	1019.084	340
48	7305293	1019.438	350
48	7305293	1019.438	360
48	7305293	1019.438	370
48	7305293	1019.438	380
48	7305293	1019.438	390
48	7305293	1019.438	400
48	7305293	1019.438	410
48	7305293	1019.438	420
48	7305293	1019.438	430
48	7305293	1019.438	440
48	7312752	1019.646	450
48	7314112	1019.864	460
49	7287609	1017.522	220
49	7288186	1017.577	230
49	7290731	1017.913	240
49	7294874	1018.25	250
49	7298053	1018.587	260
49	7300042	1018.927	270
49	7302217	1019.271	280
49	7302217	1019.271	290
49	7311959	1019.606	300
49	7314534	1019.942	310
49	7314534	1019.942	320
50	7288049	1017.57	220
50	7288061	1017.573	230
50	7291619	1017.95	240
50	7295709	1018.326	250
50	7298708	1018.704	260
50	7300923	1019.081	270
50	7307266	1019.458	280
50	7307266	1019.458	290
50	7313937	1019.835	300

