version 2
run FastSMR-8-20181114-02:24:40-7180
attr configname FastSMR
attr datetime 20181114-02:24:40
attr experiment FastSMR
attr inifile omnetpp.ini
attr iterationvars "$GCCycleForLatency=9000, $GC=true"
attr iterationvarsf GCCycleForLatency=9000,GC=true-
attr measurement "$GCCycleForLatency=9000, $GC=true"
attr network abstract.FastSMRModel
attr processid 7180
attr repetition 0
attr replication #0
attr resultdir results
attr runnumber 8
attr seedset 8
itervar GC true
itervar GCCycleForLatency 9000
param FastSMRModel.client_num 10
param FastSMRModel.logical_computer "\"client[0]\""
param **.globalParameters.max_distance 20000000m
param **.globalParameters.fix_latency 100ms
param **.globalParameters.latency_gen_mode 0
param **.globalStatistics.cool_down 10s
param **.underlayConfigurator.lcType "\"abstract.LogicComputer\""
param **.underlayConfigurator.lcName "\"logicComputer\""
param **.underlayConfigurator.nodeType "\"hosts.Node\""
param **.underlayConfigurator.nodeName "\"node\""
param **.underlayConfigurator.clientType "\"hosts.Client\""
param **.underlayConfigurator.clientName "\"client\""
param **.client[*].ctrl.initJoinTime 3000ms
param **.client[*].ctrl.loadCycle 500ms
param **.client[*].ctrl.discoveryCycle 1000ms
param **.client[*].ctrl.deviate false
param **.node[*].IPInterface "\"IPAddress\""
param **.node[*].HBcycle 1000ms
param **.node[*].ctrl.roundCycle 200ms
param **.node[*].ctrl.cycleStart 4000ms
param **.node[*].ctrl.GCCycle 9000ms
param **.node[*].ctrl.GC true
param **.rendezvous.ctrl.cycle 1000ms
param **.rendezvous.ctrl.starttime 5000ms
param **.rendezvous.replicaNumPolicyModule "\"replication\""
param **.rendezvous.replication.threshold 3
param **.rendezvous.replication.max_replica 5
param **.clock.err_mean 74ms
param **.clock.err_std 175ms
param **.pktLossRate 0.01
param **.Copt 200000000mps
param **.BW 1.04858e6bps
param **.MTU 12144b
param **.jitter_mu 1
param **.jitter_sigma 0.5
param **.Dmin 50ms
param **.jitter 50ms
param **.churnGeneratorModule "\"churnGenerator\""
param **.churnGenerator.stable_fraction 0.2
param **.churnGenerator.stable_mean 9000000ms
param **.churnGenerator.sessionLenShape 0.38
param **.churnGenerator.sessionLenScale 42.4
param **.churnGenerator.sessionLenMin 10s
param **.churnGenerator.sessionLength 30min
param **.churnGenerator.scan_cycle 100ms
param **.churnGenerator.life_span_min 10s
param **.churnGenerator.life_span_max 200s
param **.coordinator.locXMax 750
param **.coordinator.locYMax 550
param **.coordinator.locXMin 200
param **.coordinator.locYMin 50
param **.coordinator.LCXMax 1050
param **.coordinator.LCYMax 550
param **.coordinator.LCXMin 850
param **.coordinator.LCYMin 50
param **.coordinator.percept_radius 1000

vector 0 FastSMRModel.client[9] IndividualInteractionLatency:vector ETV
attr source latency
attr title "Individual Interaction Latency, vector"
vector 1 FastSMRModel.logicComputer[0].node[0] QdLengthVector:vector ETV
attr source QdLength
attr title "Qd Length, vector"
vector 2 FastSMRModel.logicComputer[0].node[1] QdLengthVector:vector ETV
attr source QdLength
attr title "Qd Length, vector"
vector 3 FastSMRModel.logicComputer[0].node[2] QdLengthVector:vector ETV
attr source QdLength
attr title "Qd Length, vector"
vector 4 FastSMRModel.logicComputer[0].node[3] QdLengthVector:vector ETV
attr source QdLength
attr title "Qd Length, vector"
vector 5 FastSMRModel.logicComputer[0].node[4] QdLengthVector:vector ETV
attr source QdLength
attr title "Qd Length, vector"
vector 6 FastSMRModel.client[2] IndividualInteractionLatency:vector ETV
attr source latency
attr title "Individual Interaction Latency, vector"
vector 7 FastSMRModel.client[4] IndividualInteractionLatency:vector ETV
attr source latency
attr title "Individual Interaction Latency, vector"
vector 8 FastSMRModel.client[7] IndividualInteractionLatency:vector ETV
attr source latency
attr title "Individual Interaction Latency, vector"
vector 9 FastSMRModel.client[5] IndividualInteractionLatency:vector ETV
attr source latency
attr title "Individual Interaction Latency, vector"
vector 10 FastSMRModel.client[6] IndividualInteractionLatency:vector ETV
attr source latency
attr title "Individual Interaction Latency, vector"
vector 11 FastSMRModel.client[0] IndividualInteractionLatency:vector ETV
attr source latency
attr title "Individual Interaction Latency, vector"
vector 12 FastSMRModel.client[1] IndividualInteractionLatency:vector ETV
attr source latency
attr title "Individual Interaction Latency, vector"
vector 13 FastSMRModel.client[3] IndividualInteractionLatency:vector ETV
attr source latency
attr title "Individual Interaction Latency, vector"
vector 14 FastSMRModel.client[8] IndividualInteractionLatency:vector ETV
attr source latency
attr title "Individual Interaction Latency, vector"
4	5593	10.1	30
4	7500	10.3	40
4	9289	10.5	50
4	11068	10.7	60
4	12845	10.9	70
4	14529	11.1	80
4	16273	11.3	90
4	18015	11.5	100
4	19481	11.7	110
4	21245	11.9	120
4	22819	12.1	130
4	24541	12.3	140
4	26105	12.5	150
4	27837	12.7	160
4	29212	12.9	170
4	31933	13.1	180
4	34625	13.3	190
4	36418	13.5	200
4	37900	13.7	210
4	39880	13.9	220
4	41491	14.1	230
4	43067	14.3	240
4	44246	14.5	240
4	44261	14.5	250
4	46357	14.7	260
4	48211	14.9	50
4	49975	15.1	60
4	51557	15.3	70
4	54134	15.5	80
4	56234	15.7	90
4	58142	15.9	100
4	60001	16.1	110
4	61798	16.3	120
4	63581	16.5	130
4	65354	16.7	140
4	66617	16.9	150
4	72603	17.521	160
4	76057	17.943	170
4	76057	17.943	180
4	76057	17.943	190
4	79900	18.366	200
4	79900	18.366	210
4	79900	18.366	220
4	81375	18.5	230
4	83527	18.7	240
4	85129	18.9	250
4	87169	19.1	260
4	92529	19.721	270
4	95437	20.14	280
4	95437	20.14	290
4	98072	20.537	300
4	100801	20.888	310
4	100801	20.888	320
4	100801	20.888	330
4	100801	20.888	340
4	101354	20.9	350
4	103836	21.1	360
4	106547	21.3	370
4	108894	21.5	380
4	110420	21.7	390
4	111894	21.9	400
4	113675	22.1	410
4	114772	22.3	420
4	121004	22.919	430
4	121004	22.919	440
4	121004	22.919	450
4	125802	23.5	450
4	128247	23.737	10
4	128247	23.737	20
4	128247	23.737	30
4	128247	23.737	40
4	130240	23.9	50
4	132572	24.1	60
4	134357	24.3	70
4	136134	24.5	80
4	137587	24.7	90
4	139714	24.9	100
4	140987	25.1	110
4	142143	25.3	120
4	144183	25.5	130
4	146069	25.7	140
4	148322	25.9	150
4	150594	26.1	160
4	152418	26.3	170
4	154010	26.5	180
4	156002	26.7	190
4	157787	26.9	200
4	159305	27.1	210
4	161311	27.3	220
4	163204	27.5	230
4	164989	27.7	240
4	166772	27.9	250
4	168593	28.1	260
4	170378	28.3	270
4	172173	28.5	280
4	173962	28.7	290
4	175482	28.9	300
4	177004	29.1	310
4	179261	29.3	320
4	181180	29.5	330
4	182975	29.7	340
4	184760	29.9	350
4	186589	30.1	360
4	188374	30.3	370
4	190163	30.5	380
4	191934	30.7	390
4	193199	30.9	400
4	194385	31.1	410
4	196738	31.3	420
4	198717	31.5	430
4	200859	31.7	440
4	202781	31.9	450
4	207544	32.5	450
4	208232	32.52	460
4	208232	32.52	470
4	208232	32.52	480
4	209991	32.7	490
4	211507	32.9	50
4	217291	33.52	60
4	217291	33.52	70
4	217291	33.52	80
4	219020	33.7	90
4	224510	34.319	100
4	224510	34.319	110
4	224510	34.319	120
4	226240	34.5	130
4	227823	34.7	140
4	228998	34.9	150
4	235022	35.519	160
4	238825	35.938	170
4	238825	35.938	180
4	238825	35.938	190
4	238825	35.938	200
4	240682	36.1	210
4	242325	36.3	220
4	244451	36.5	230
4	246266	36.7	240
4	248057	36.9	250
4	249882	37.1	260
4	251480	37.3	270
4	253460	37.5	280
4	260531	38.341	290
4	260531	38.341	300
4	260531	38.341	310
4	260531	38.341	320
4	262250	38.5	330
4	264267	38.7	340
4	266042	38.9	350
4	267899	39.1	360
4	269670	39.3	370
4	271463	39.5	380
4	276878	40.12	390
4	276878	40.12	400
4	276878	40.12	410
4	282155	40.721	420
4	282155	40.721	430
4	282155	40.721	440
4	287587	41.319	450
4	288857	41.5	450
4	291253	41.739	10
4	291253	41.739	20
4	291253	41.739	30
4	291253	41.739	40
4	293030	41.9	50
4	294529	42.1	60
4	295689	42.3	70
4	298210	42.5	80
4	300234	42.7	90
4	301362	42.9	100
4	303784	43.1	110
4	305392	43.3	120
4	307245	43.5	130
4	309223	43.7	140
4	310873	43.9	150
4	313252	44.1	160
4	315049	44.3	170
4	316842	44.5	180
4	318318	44.7	190
4	320312	44.9	200
4	322253	45.1	210
4	324040	45.3	220
4	325827	45.5	230
4	327297	45.7	240
4	329303	45.9	250
4	330929	46.1	260
4	332939	46.3	270
4	334515	46.5	280
4	336336	46.7	290
4	338438	46.9	300
4	340118	47.1	310
4	342043	47.3	320
4	343688	47.5	330
4	345600	47.7	340
4	351058	48.319	350
4	351058	48.319	360
4	351058	48.319	370
4	352785	48.5	380
4	354386	48.7	390
4	355675	48.9	400
4	358167	49.1	410
4	364904	49.939	420
4	364904	49.939	430
4	364904	49.939	440
4	369135	50.359	450
4	369135	50.359	460
4	369135	50.359	470
4	370645	50.5	470
4	370660	50.5	480
4	372249	50.7	470
4	373413	50.9	30
4	375790	51.1	40
4	378289	51.3	50
4	383652	51.919	60
4	383652	51.919	70
4	383652	51.919	80
4	385438	52.1	90
4	387037	52.3	100
4	388491	52.5	110
4	394352	53.119	120
4	394352	53.119	130
4	394352	53.119	140
4	399858	53.72	150
4	403456	54.139	160
4	403456	54.139	170
4	403456	54.139	180
4	403456	54.139	190
4	405236	54.3	200
4	407070	54.5	210
4	408864	54.7	220
4	410600	54.9	230
4	412124	55.1	240
4	414389	55.3	250
4	416308	55.5	260
4	418085	55.7	270
4	419866	55.9	280
4	421703	56.1	290
4	423498	56.3	300
4	425273	56.5	310
4	429735	57.12	320
4	433033	57.538	330
4	433033	57.538	340
4	437324	57.958	350
4	441232	58.377	360
4	441232	58.377	370
4	441232	58.377	380
4	441232	58.377	390
4	441232	58.377	400
4	442983	58.5	410
4	445181	58.7	420
4	446793	58.9	430
4	448821	59.1	440
4	450604	59.3	450
4	452070	59.5	450
4	452085	59.5	460
4	454141	59.7	470
4	456046	59.9	40
4	461430	60.621	50
4	461430	60.621	60
4	461430	60.621	70
4	465500	61.12	80
4	465500	61.12	90
4	465500	61.12	100
4	467276	61.3	110
4	470049	61.5	120
4	472225	61.7	130
4	477876	62.319	140
4	477876	62.319	150
4	477876	62.319	160
4	479613	62.5	170
4	481461	62.7	180
4	483250	62.9	190
4	484826	63.1	200
4	486292	63.3	210
4	488351	63.5	220
4	490496	63.7	230
4	492281	63.9	240
4	494100	64.1	250
4	495646	64.3	260
4	497112	64.5	270
4	499363	64.7	280
4	504931	65.32	290
4	504931	65.32	300
4	504931	65.32	310
4	506664	65.5	320
4	512172	66.123	330
4	512172	66.123	340
4	512172	66.123	350
4	513882	66.3	360
4	515752	66.5	370
4	517549	66.7	380
4	519324	66.9	390
4	521159	67.1	400
4	522950	67.3	410
4	524478	67.5	420
4	525944	67.7	430
4	528205	67.9	440
4	530168	68.1	450
4	531696	68.3	460
4	532997	68.5	460
4	533012	68.5	470
4	535432	68.7	470
4	537425	68.9	50
4	539021	69.1	60
4	540481	69.3	70
4	542744	69.5	80
4	547728	70.118	90
4	547728	70.118	100
4	547728	70.118	110
4	549732	70.3	120
4	555230	70.918	130
4	555230	70.918	140
4	555230	70.918	150
4	557035	71.1	160
4	558573	71.3	170
4	560838	71.5	180
4	562572	71.7	190
4	564562	71.9	200
2	5591	10.1	30
2	7498	10.3	40
2	9287	10.5	50
2	11066	10.7	60
2	12843	10.9	70
2	16042	11.287	80
2	16271	11.3	90
2	18013	11.5	100
2	19479	11.7	110
2	21243	11.9	120
2	22817	12.1	130
2	24539	12.3	140
2	26103	12.5	150
2	28996	12.881	160
2	31627	13.09	170
2	31931	13.1	180
2	34623	13.3	190
2	36416	13.5	200
2	37898	13.7	210
2	41145	14.081	220
2	41489	14.1	230
2	43065	14.3	240
2	44244	14.5	240
2	44259	14.5	250
2	46355	14.7	260
2	48209	14.9	50
2	49973	15.1	60
2	51555	15.3	70
2	54132	15.5	80
2	56232	15.7	90
2	58140	15.9	100
2	59999	16.1	110
2	61796	16.3	120
2	63579	16.5	130
2	65352	16.7	140
2	66615	16.9	150
2	67815	17.1	160
2	70018	17.3	170
2	71948	17.5	180
2	73742	17.7	190
2	75246	17.9	200
2	77560	18.1	210
2	78939	18.3	220
2	81373	18.5	230
2	84909	18.883	240
2	85127	18.9	250
2	87167	19.1	260
2	88952	19.3	270
2	90413	19.5	280
2	91874	19.7	290
2	93651	19.9	300
2	94943	20.1	310
2	96345	20.3	320
2	97589	20.5	330
2	99182	20.7	340
2	101352	20.9	350
2	103834	21.1	360
2	106545	21.3	370
2	108892	21.5	380
2	110418	21.7	390
2	111892	21.9	400
2	114564	22.281	410
2	114770	22.3	420
2	116986	22.5	430
2	119128	22.7	440
2	120605	22.9	450
2	123087	23.1	460
2	124642	23.3	470
2	125800	23.5	470
2	125815	23.5	480
2	127499	23.7	490
2	130238	23.9	50
2	132570	24.1	60
2	134355	24.3	70
2	137399	24.69	80
2	137585	24.7	90
2	139712	24.9	100
2	140985	25.1	110
2	142141	25.3	120
2	144181	25.5	130
2	146067	25.7	140
2	148320	25.9	150
2	150592	26.1	160
2	153796	26.484	170
2	154008	26.5	180
2	156000	26.7	190
2	157785	26.9	200
2	159303	27.1	210
2	161309	27.3	220
2	163202	27.5	230
2	164987	27.7	240
2	166770	27.9	250
2	168591	28.1	260
2	170376	28.3	270
2	172171	28.5	280
2	173960	28.7	290
2	175480	28.9	300
2	177002	29.1	310
2	179259	29.3	320
2	181178	29.5	330
2	182973	29.7	340
2	184758	29.9	350
2	186587	30.1	360
2	188372	30.3	370
2	190161	30.5	380
2	191932	30.7	390
2	193197	30.9	400
2	196480	31.281	410
2	196736	31.3	420
2	198715	31.5	430
2	200857	31.7	440
2	202779	31.9	450
2	204612	32.1	460
2	206077	32.3	470
2	207542	32.5	470
2	207557	32.5	480
2	211187	32.884	40
2	211505	32.9	50
2	213672	33.1	60
2	215167	33.3	70
2	216646	33.5	80
2	219018	33.7	90
2	220876	33.9	100
2	222390	34.1	110
2	223868	34.3	120
2	226238	34.5	130
2	227821	34.7	140
2	228996	34.9	150
2	231267	35.1	160
2	234114	35.483	170
2	234336	35.5	180
2	236549	35.7	190
2	238070	35.9	200
2	242144	36.287	210
2	242323	36.3	220
2	244449	36.5	230
2	246264	36.7	240
2	248055	36.9	250
2	251278	37.288	260
2	251478	37.3	270
2	253458	37.5	280
2	255249	37.7	290
2	256467	37.9	300
2	257654	38.1	310
2	259601	38.3	320
2	262248	38.5	330
2	264265	38.7	340
2	266040	38.9	350
2	267897	39.1	360
2	269668	39.3	370
2	271461	39.5	380
2	273244	39.7	390
2	274705	39.9	400
2	276230	40.1	410
2	279723	40.481	420
2	279941	40.5	430
2	281630	40.7	440
2	283858	40.9	450
2	285598	41.1	460
2	286935	41.3	470
2	288855	41.5	470
2	288875	41.5	480
2	290469	41.7	490
2	293028	41.9	50
2	294527	42.1	60
2	295687	42.3	70
2	298208	42.5	80
2	301060	42.883	90
2	301360	42.9	100
2	303782	43.1	110
2	305390	43.3	120
2	307243	43.5	130
2	310596	43.883	140
2	310871	43.9	150
2	313250	44.1	160
2	315047	44.3	170
2	316840	44.5	180
2	318316	44.7	190
2	320310	44.9	200
2	322251	45.1	210
2	324038	45.3	220
2	325825	45.5	230
2	327295	45.7	240
2	329301	45.9	250
2	330927	46.1	260
2	332937	46.3	270
2	336156	46.684	280
2	336334	46.7	290
2	338436	46.9	300
2	340116	47.1	310
2	342041	47.3	320
2	343686	47.5	330
2	345598	47.7	340
2	347427	47.9	350
2	348783	48.1	360
2	350373	48.3	370
2	352783	48.5	380
2	355467	48.884	390
2	355673	48.9	400
2	358165	49.1	410
2	360094	49.3	420
2	361029	49.5	430
2	361872	49.7	440
2	366445	50.083	450
2	366651	50.1	460
2	368188	50.3	470
2	370643	50.5	470
2	370658	50.5	480
2	372247	50.7	490
2	375496	51.082	30
2	375788	51.1	40
2	378287	51.3	50
2	380073	51.5	60
2	381541	51.7	70
2	383004	51.9	80
2	385436	52.1	90
2	387035	52.3	100
2	388489	52.5	110
2	390762	52.7	120
2	392057	52.9	130
2	393786	53.1	140
2	396019	53.3	150
2	397234	53.5	160
2	399202	53.7	170
2	401127	53.9	180
2	402686	54.1	190
2	406834	54.481	200
2	408660	54.684	210
2	408862	54.7	220
2	410598	54.9	230
2	412122	55.1	240
2	414387	55.3	250
2	416306	55.5	260
2	418083	55.7	270
2	419864	55.9	280
2	421701	56.1	290
2	423496	56.3	300
2	425271	56.5	310
2	428142	56.883	320
2	431256	57.381	330
2	431256	57.381	340
2	435131	57.802	350
2	435131	57.802	360
2	435131	57.802	370
2	436151	57.9	380
2	438668	58.1	390
2	440335	58.3	400
2	442981	58.5	410
2	446579	58.884	420
2	446791	58.9	430
2	448819	59.1	440
2	450602	59.3	450
2	452068	59.5	450
2	452083	59.5	460
2	454139	59.7	470
2	457484	60.088	40
2	457684	60.1	50
2	459360	60.3	60
2	464414	60.981	70
2	466155	61.163	80
2	468751	61.404	90
2	468751	61.404	100
2	468751	61.404	110
2	472027	61.687	120
2	473688	61.889	130
2	473870	61.9	140
2	475737	62.1	150
2	477239	62.3	160
2	479611	62.5	170
2	481459	62.7	180
2	483248	62.9	190
2	484824	63.1	200
2	488087	63.484	210
2	488349	63.5	220
2	490494	63.7	230
2	492279	63.9	240
2	494098	64.1	250
2	495644	64.3	260
2	497110	64.5	270
2	499361	64.7	280
2	501137	64.9	290
2	502777	65.1	300
2	504284	65.3	310
2	506662	65.5	320
2	509332	65.882	330
2	509646	65.9	340
2	511487	66.1	350
2	513880	66.3	360
2	515750	66.5	370
2	517547	66.7	380
2	519322	66.9	390
2	521157	67.1	400
2	522948	67.3	410
2	524476	67.5	420
2	525942	67.7	430
2	528203	67.9	440
2	530166	68.1	450
2	531694	68.3	460
2	532995	68.5	460
2	533010	68.5	470
2	535430	68.7	470
2	537423	68.9	50
2	539019	69.1	60
2	540479	69.3	70
2	542742	69.5	80
2	544655	69.7	90
2	546136	69.9	100
2	549458	70.281	110
2	549730	70.3	120
2	551883	70.5	130
2	553220	70.7	140
2	554673	70.9	150
2	557033	71.1	160
2	558571	71.3	170
2	562358	71.683	180
2	562570	71.7	190
2	565976	72.082	200
2	566190	72.1	210
2	567860	72.3	220
2	569185	72.5	230
2	570757	72.7	240
2	572238	72.9	250
2	573723	73.1	260
2	575152	73.3	270
2	576029	73.5	280
2	577323	73.7	290
2	578889	73.9	300
2	580874	74.1	310
2	583519	74.483	320
2	583713	74.5	330
2	585348	74.7	340
2	586780	74.9	350
2	587743	75.1	360
2	589470	75.3	370
2	591178	75.5	380
2	592059	75.7	390
2	593223	75.9	400
2	594960	76.1	410
2	598143	76.484	420
2	598329	76.5	430
2	599980	76.7	440
2	601418	76.9	450
2	602912	77.1	460
2	604193	77.3	470
2	605774	77.5	470
2	605788	77.5	480
2	607276	77.7	20
2	608721	77.9	30
2	610202	78.1	40
2	611382	78.3	50
2	612859	78.5	60
2	614250	78.7	70
2	615905	78.9	80
2	617499	79.1	90
2	618937	79.3	100
2	621436	79.684	110
2	621630	79.7	120
2	623267	79.9	130
2	625806	80.282	140
2	626004	80.3	150
2	628425	80.684	160
2	628583	80.7	170
2	630169	80.9	180
2	631988	81.1	190
2	633518	81.3	200
2	634950	81.5	210
2	636392	81.7	220
2	637826	81.9	230
2	639320	82.1	240
2	640756	82.3	250
2	642186	82.5	260
2	643636	82.7	270
2	645074	82.9	280
2	646251	83.1	290
2	647898	83.3	300
2	649303	83.5	310
2	650898	83.7	320
2	652344	83.9	330
2	653578	84.1	340
2	655219	84.3	350
2	656747	84.5	360
2	658957	84.881	370
2	659127	84.9	380
2	661015	85.1	390
2	662573	85.3	400
2	663757	85.5	410
2	665404	85.7	420
2	668039	86.085	430
2	668219	86.1	440
2	669870	86.3	450
2	671288	86.5	450
2	671302	86.5	460
2	672528	86.7	20
2	673841	86.9	30
2	675649	87.1	40
2	677213	87.3	50
2	678389	87.5	60
2	680007	87.7	70
2	681573	87.9	80
2	683056	88.1	90
2	684492	88.3	100
2	685934	88.5	110
2	687372	88.7	120
2	688812	88.9	130
2	690298	89.1	140
2	691744	89.3	150
2	693182	89.5	160
2	694614	89.7	170
2	695796	89.9	180
2	696926	90.1	190
2	698505	90.3	200
2	701267	90.681	210
2	701435	90.7	220
2	703291	90.9	230
2	704887	91.1	240
2	706331	91.3	250
2	707305	91.5	260
2	710294	91.89	270
2	710482	91.9	280
2	712169	92.1	290
2	713611	92.3	300
2	714740	92.5	310
2	716137	92.7	320
2	717777	92.9	330
2	719459	93.1	340
2	720905	93.3	350
2	722333	93.5	360
2	723783	93.7	370
2	725225	93.9	380
2	726552	94.1	390
2	728150	94.3	400
2	729595	94.5	410
2	730722	94.7	420
2	732369	94.9	430
2	733983	95.1	440
2	735419	95.3	450
2	736847	95.5	450
2	736861	95.5	460
2	738353	95.7	20
2	739785	95.9	30
2	741269	96.1	40
2	742713	96.3	50
2	744157	96.5	60
2	745599	96.7	70
2	747045	96.9	80
2	748521	97.1	90
2	749961	97.3	100
2	751395	97.5	110
2	752849	97.7	120
2	754283	97.9	130
2	755761	98.1	140
2	757205	98.3	150
2	758334	98.5	160
2	759834	98.7	170
2	761538	98.9	180
2	762888	99.1	190
2	764478	99.3	200
2	765927	99.5	210
2	767365	99.7	220
2	768807	99.9	230
2	772035	100.399	240
2	772035	100.399	250
2	772907	100.5	260
2	774637	100.7	270
2	776087	100.9	280
2	777424	101.1	290
2	778737	101.3	300
2	780358	101.5	310
2	781930	101.7	320
2	783380	101.9	330
2	784868	102.1	340
2	786306	102.3	350
2	787744	102.5	360
2	788920	102.7	370
2	790553	102.9	380
2	793192	103.283	390
2	793382	103.3	400
2	794718	103.5	410
2	796369	103.7	420
2	797469	103.9	430
2	799301	104.1	440
2	800897	104.3	450
2	802319	104.5	450
2	802333	104.5	460
2	803809	104.7	20
2	805239	104.9	30
2	806739	105.1	40
2	808161	105.3	50
2	809615	105.5	60
2	811055	105.7	70
2	812241	105.9	80
2	813902	106.1	90
2	815458	106.3	100
2	816900	106.5	110
2	818330	106.7	120
2	819774	106.9	130
2	821252	107.1	140
2	822698	107.3	150
2	824138	107.5	160
2	825578	107.7	170
2	827022	107.9	180
2	828514	108.1	190
2	830967	108.483	200
2	831201	108.5	210
2	832539	108.7	220
2	833934	108.9	230
2	835618	109.1	240
2	837250	109.3	250
2	838692	109.5	260
2	840136	109.7	270
2	841570	109.9	280
2	842917	110.1	290
2	844468	110.3	300
2	845950	110.5	310
2	847091	110.7	320
2	848728	110.9	330
2	850829	111.282	340
2	850985	111.3	350
2	853157	111.5	360
2	854417	111.7	370
2	856066	111.9	380
2	858608	112.283	390
2	858854	112.3	400
2	860346	112.5	410
2	861979	112.7	420
2	864600	113.082	430
2	864805	113.1	440
2	866191	113.3	450
2	867824	113.5	450
2	867838	113.5	460
2	869406	113.7	20
2	870539	113.9	30
2	872236	114.1	40
2	873796	114.3	50
2	875228	114.5	60
2	876672	114.7	70
2	877854	114.9	80
2	879529	115.1	90
2	880790	115.3	100
2	882391	115.5	110
2	883971	115.7	120
2	885409	115.9	130
2	886887	116.1	140
2	888325	116.3	150
2	889781	116.5	160
2	891221	116.7	170
2	892643	116.9	180
2	894143	117.1	190
2	895575	117.3	200
2	897013	117.5	210
2	898461	117.7	220
2	900878	118.085	230
2	901118	118.1	240
2	902870	118.3	250
2	904304	118.5	260
2	905752	118.7	270
2	907198	118.9	280
2	908676	119.1	290
2	910116	119.3	300
2	911558	119.5	310
2	912994	119.7	320
2	914444	119.9	330
2	915926	120.1	340
2	917096	120.3	350
2	918753	120.5	360
2	921316	120.882	370
2	921522	120.9	380
2	923213	121.1	390
2	924653	121.3	400
2	925940	121.5	410
2	927491	121.7	420
2	928824	121.9	430
2	930129	122.1	440
2	932840	122.481	450
2	933004	122.5	450
2	933018	122.5	460
2	934885	122.7	20
2	936339	122.9	30
2	937821	123.1	40
2	939257	123.3	50
2	940711	123.5	60
2	942149	123.7	70
2	943430	123.9	80
2	944815	124.1	90
2	946448	124.3	100
2	948671	124.682	110
2	948876	124.7	120
2	950730	124.9	130
2	952418	125.1	140
2	953868	125.3	150
2	955310	125.5	160
2	956746	125.7	170
2	957900	125.9	180
2	959484	126.1	190
2	960971	126.3	200
2	962569	126.5	210
2	963861	126.7	220
2	965438	126.9	230
2	966954	127.1	240
2	968245	127.3	250
2	969808	127.5	260
2	971275	127.7	270
2	972575	127.9	280
2	974187	128.1	290
2	975648	128.3	300
2	977100	128.5	310
2	978540	128.7	320
2	979974	128.9	330
2	981458	129.1	340
1	5590	10.1	30
1	7497	10.3	40
1	9286	10.5	50
1	11065	10.7	60
1	12842	10.9	70
1	14526	11.1	80
1	16270	11.3	90
1	18012	11.5	100
1	19478	11.7	110
1	21242	11.9	120
1	22816	12.1	130
1	24538	12.3	140
1	26102	12.5	150
1	27834	12.7	160
1	29209	12.9	170
1	31930	13.1	180
1	34622	13.3	190
1	38571	13.732	200
1	38571	13.732	210
1	39877	13.9	220
1	41488	14.1	230
1	43064	14.3	240
1	44243	14.5	240
1	44258	14.5	250
1	46354	14.7	40
1	48208	14.9	50
1	49972	15.1	60
1	51554	15.3	70
1	54131	15.5	80
1	56231	15.7	90
1	58139	15.9	100
1	59998	16.1	110
1	61795	16.3	120
1	63578	16.5	130
1	65351	16.7	140
1	66614	16.9	150
1	67814	17.1	160
1	70017	17.3	170
1	71947	17.5	180
1	73741	17.7	190
1	75245	17.9	200
1	79494	18.331	210
1	79494	18.331	220
1	81372	18.5	230
1	83524	18.7	240
1	85126	18.9	250
1	87166	19.1	260
1	88951	19.3	270
1	90412	19.5	280
1	91873	19.7	290
1	93650	19.9	300
1	99818	20.755	310
1	102659	20.994	320
1	102659	20.994	330
1	105428	21.213	340
1	105428	21.213	350
1	105428	21.213	360
1	106544	21.3	370
1	108891	21.5	380
1	110417	21.7	390
1	111891	21.9	400
1	113672	22.1	410
1	114769	22.3	420
1	116985	22.5	430
1	121403	22.934	440
1	121403	22.934	450
1	123086	23.1	460
1	124641	23.3	470
1	125799	23.5	470
1	129429	23.831	30
1	129429	23.831	40
1	130237	23.9	50
1	132569	24.1	60
1	134354	24.3	70
1	136131	24.5	80
1	137584	24.7	90
1	143189	25.405	100
1	143189	25.405	110
1	143189	25.405	120
1	144180	25.5	130
1	146066	25.7	140
1	148319	25.9	150
1	150591	26.1	160
1	152415	26.3	170
1	154007	26.5	180
1	155999	26.7	190
1	160006	27.135	200
1	160006	27.135	210
1	161308	27.3	220
1	163201	27.5	230
1	164986	27.7	240
1	166769	27.9	250
1	168590	28.1	260
1	170375	28.3	270
1	172170	28.5	280
1	173959	28.7	290
1	175479	28.9	300
1	177001	29.1	310
1	179258	29.3	320
1	181177	29.5	330
1	182972	29.7	340
1	184757	29.9	350
1	186586	30.1	360
1	188371	30.3	370
1	190160	30.5	380
1	191931	30.7	390
1	193196	30.9	400
1	194382	31.1	410
1	199425	31.533	420
1	199425	31.533	430
1	200856	31.7	440
1	202778	31.9	450
1	204611	32.1	460
1	206076	32.3	470
1	207541	32.5	470
1	207556	32.5	480
1	209988	32.7	40
1	211504	32.9	50
1	213671	33.1	60
1	215166	33.3	70
1	216645	33.5	80
1	219017	33.7	90
1	220875	33.9	100
1	222389	34.1	110
1	223867	34.3	120
1	226237	34.5	130
1	229742	34.929	140
1	229742	34.929	150
1	231266	35.1	160
1	232663	35.3	170
1	234335	35.5	180
1	236548	35.7	190
1	238069	35.9	200
1	240679	36.1	210
1	242322	36.3	220
1	244448	36.5	230
1	246263	36.7	240
1	248054	36.9	250
1	249879	37.1	260
1	251477	37.3	270
1	253457	37.5	280
1	255248	37.7	290
1	256466	37.9	300
1	257653	38.1	310
1	259600	38.3	320
1	262247	38.5	330
1	264264	38.7	340
1	266039	38.9	350
1	267896	39.1	360
1	269667	39.3	370
1	271460	39.5	380
1	273243	39.7	390
1	274704	39.9	400
1	276229	40.1	410
1	278603	40.3	420
1	279940	40.5	430
1	281629	40.7	440
1	283857	40.9	450
1	285597	41.1	460
1	286934	41.3	470
1	288854	41.5	470
1	288874	41.5	480
1	290468	41.7	40
1	297030	42.404	50
1	297030	42.404	60
1	297030	42.404	70
1	298207	42.5	80
1	300231	42.7	90
1	301359	42.9	100
1	303781	43.1	110
1	308033	43.532	120
1	309787	43.761	130
1	309787	43.761	140
1	310870	43.9	150
1	313249	44.1	160
1	315046	44.3	170
1	318986	44.731	180
1	318986	44.731	190
1	320309	44.9	200
1	322250	45.1	210
1	324037	45.3	220
1	327970	45.731	230
1	327970	45.731	240
1	331601	46.131	250
1	331601	46.131	260
1	335070	46.53	270
1	335070	46.53	280
1	336333	46.7	290
1	338435	46.9	300
1	340115	47.1	310
1	342040	47.3	320
1	343685	47.5	330
1	345597	47.7	340
1	347426	47.9	350
1	348782	48.1	360
1	350372	48.3	370
1	352782	48.5	380
1	354383	48.7	390
1	355672	48.9	400
1	358164	49.1	410
1	360093	49.3	420
1	361028	49.5	430
1	361871	49.7	440
1	364082	49.9	450
1	368773	50.334	460
1	368773	50.334	470
1	370642	50.5	470
1	374587	51.005	10
1	374587	51.005	20
1	374587	51.005	30
1	375787	51.1	40
1	378286	51.3	50
1	380072	51.5	60
1	381540	51.7	70
1	383003	51.9	80
1	385435	52.1	90
1	387034	52.3	100
1	388488	52.5	110
1	392617	52.932	120
1	392617	52.932	130
1	393785	53.1	140
1	396018	53.3	150
1	397233	53.5	160
1	399201	53.7	170
1	401126	53.9	180
1	402685	54.1	190
1	405233	54.3	200
1	407067	54.5	210
1	408861	54.7	220
1	410597	54.9	230
1	412121	55.1	240
1	414386	55.3	250
1	416305	55.5	260
1	418082	55.7	270
1	419863	55.9	280
1	421700	56.1	290
1	423495	56.3	300
1	425270	56.5	310
1	427057	56.7	320
1	428327	56.9	330
1	430883	57.336	340
1	430883	57.336	350
1	432363	57.5	360
1	436808	57.93	370
1	436808	57.93	380
1	438667	58.1	390
1	440334	58.3	400
1	442980	58.5	410
1	445178	58.7	420
1	446790	58.9	430
1	448818	59.1	440
1	452067	59.5	440
1	452775	59.529	450
1	452775	59.529	460
1	454138	59.7	30
1	456043	59.9	40
1	457683	60.1	50
1	459359	60.3	60
1	460674	60.5	70
1	462266	60.7	80
1	463540	60.9	90
1	465197	61.1	100
1	467273	61.3	110
1	470046	61.5	120
1	472222	61.7	130
1	473869	61.9	140
1	475736	62.1	150
1	477238	62.3	160
1	479610	62.5	170
1	481458	62.7	180
1	483247	62.9	190
1	484823	63.1	200
1	486289	63.3	210
1	488348	63.5	220
1	490493	63.7	230
1	492278	63.9	240
1	494097	64.1	250
1	495643	64.3	260
1	497109	64.5	270
1	499360	64.7	280
1	501136	64.9	290
1	502776	65.1	300
1	504283	65.3	310
1	506661	65.5	320
1	508507	65.7	330
1	509645	65.9	340
1	511486	66.1	350
1	513879	66.3	360
1	515749	66.5	370
1	517546	66.7	380
1	519321	66.9	390
1	521156	67.1	400
1	522947	67.3	410
1	524475	67.5	420
1	525941	67.7	430
1	528202	67.9	440
1	530165	68.1	450
1	531693	68.3	460
1	532994	68.5	460
1	533009	68.5	470
1	535429	68.7	40
1	537422	68.9	50
1	539018	69.1	60
1	540478	69.3	70
1	542741	69.5	80
1	544654	69.7	90
1	548139	70.131	100
1	548139	70.131	110
1	549729	70.3	120
1	551882	70.5	130
1	553219	70.7	140
1	554672	70.9	150
1	557032	71.1	160
1	558570	71.3	170
1	560835	71.5	180
1	562569	71.7	190
1	564559	71.9	200
1	566189	72.1	210
1	567859	72.3	220
1	569184	72.5	230
1	570756	72.7	240
1	572237	72.9	250
1	573722	73.1	260
1	577091	73.686	270
1	579395	73.918	280
1	579395	73.918	290
1	579395	73.918	300
1	580873	74.1	310
1	582455	74.3	320
1	583712	74.5	330
1	585347	74.7	340
1	586779	74.9	350
1	587742	75.1	360
1	589469	75.3	370
1	592657	75.814	380
1	592657	75.814	390
1	595495	76.131	400
1	595495	76.131	410
1	596973	76.3	420
1	598328	76.5	430
1	599979	76.7	440
1	601417	76.9	450
1	602911	77.1	460
1	604192	77.3	470
1	605773	77.5	470
1	605787	77.5	480
1	607275	77.7	20
1	608720	77.9	30
1	610201	78.1	40
1	611381	78.3	50
1	614785	78.73	60
1	614785	78.73	70
1	615904	78.9	80
1	617498	79.1	90
1	618936	79.3	100
1	620386	79.5	110
1	621629	79.7	120
1	623266	79.9	130
1	624751	80.1	140
1	626003	80.3	150
1	629048	80.73	160
1	629048	80.73	170
1	630168	80.9	180
1	631987	81.1	190
1	633517	81.3	200
1	634949	81.5	210
1	636391	81.7	220
1	637825	81.9	230
1	639319	82.1	240
1	640755	82.3	250
1	642185	82.5	260
1	643635	82.7	270
1	646789	83.13	280
1	646789	83.13	290
1	647897	83.3	300
1	649302	83.5	310
1	650897	83.7	320
1	652343	83.9	330
1	653577	84.1	340
1	655218	84.3	350
1	656746	84.5	360
1	659723	84.931	370
1	659723	84.931	380
1	661014	85.1	390
1	662572	85.3	400
1	663756	85.5	410
1	665403	85.7	420
1	666931	85.9	430
1	668218	86.1	440
1	669869	86.3	450
1	671287	86.5	450
1	671301	86.5	460
1	674423	86.932	20
1	674423	86.932	30
1	675648	87.1	40
1	677212	87.3	50
1	678388	87.5	60
1	680006	87.7	70
1	681572	87.9	80
1	683055	88.1	90
1	684491	88.3	100
1	685933	88.5	110
1	687371	88.7	120
1	688811	88.9	130
1	690297	89.1	140
1	691743	89.3	150
1	693181	89.5	160
1	694613	89.7	170
1	697963	90.255	180
1	697963	90.255	190
1	698504	90.3	200
1	702040	90.731	210
1	702040	90.731	220
1	703290	90.9	230
1	704886	91.1	240
1	707878	91.533	250
1	707878	91.533	260
1	709083	91.7	270
1	710481	91.9	280
1	712168	92.1	290
1	715294	92.532	300
1	716886	92.761	310
1	716886	92.761	320
1	717776	92.9	330
1	719458	93.1	340
1	720904	93.3	350
1	722332	93.5	360
1	723782	93.7	370
1	725224	93.9	380
1	726551	94.1	390
1	728149	94.3	400
1	731269	94.731	410
1	731269	94.731	420
1	732368	94.9	430
1	733982	95.1	440
1	735418	95.3	450
1	736846	95.5	450
1	736860	95.5	460
1	738352	95.7	20
1	739784	95.9	30
1	741268	96.1	40
1	742712	96.3	50
1	744156	96.5	60
1	745598	96.7	70
1	747044	96.9	80
1	748520	97.1	90
1	749960	97.3	100
1	751394	97.5	110
1	752848	97.7	120
1	754282	97.9	130
1	755760	98.1	140
1	758748	98.529	150
1	758748	98.529	160
1	759833	98.7	170
1	761537	98.9	180
1	762887	99.1	190
1	764477	99.3	200
1	765926	99.5	210
1	767364	99.7	220
1	768806	99.9	230
1	770284	100.1	240
1	771163	100.3	250
1	772906	100.5	260
1	774636	100.7	270
1	776086	100.9	280
1	777423	101.1	290
1	778736	101.3	300
1	780357	101.5	310
1	781929	101.7	320
1	783379	101.9	330
1	784867	102.1	340
1	786305	102.3	350
1	787743	102.5	360
1	788919	102.7	370
1	790552	102.9	380
1	792134	103.1	390
1	795278	103.533	400
1	795278	103.533	410
1	798032	103.931	420
1	798032	103.931	430
1	799300	104.1	440
1	800896	104.3	450
1	802318	104.5	450
1	802332	104.5	460
1	803808	104.7	20
1	805238	104.9	30
1	806738	105.1	40
1	808160	105.3	50
1	809614	105.5	60
1	811054	105.7	70
1	812240	105.9	80
1	813901	106.1	90
1	815457	106.3	100
1	816899	106.5	110
1	818329	106.7	120
1	819773	106.9	130
1	821251	107.1	140
1	822697	107.3	150
1	824137	107.5	160
1	825577	107.7	170
1	827021	107.9	180
1	828513	108.1	190
1	829800	108.3	200
1	833076	108.73	210
1	834689	108.972	220
1	834689	108.972	230
1	835617	109.1	240
1	837249	109.3	250
1	838691	109.5	260
1	840135	109.7	270
1	841569	109.9	280
1	842916	110.1	290
1	844467	110.3	300
1	847631	110.731	310
1	847631	110.731	320
1	848727	110.9	330
1	851616	111.329	340
1	851616	111.329	350
1	854951	111.73	360
1	854951	111.73	370
1	856065	111.9	380
1	857402	112.1	390
1	858853	112.3	400
1	860345	112.5	410
1	861978	112.7	420
1	863504	112.9	430
1	864804	113.1	440
1	866190	113.3	450
1	867823	113.5	450
1	867837	113.5	460
1	871093	113.932	20
1	871093	113.932	30
1	872235	114.1	40
1	873795	114.3	50
1	875227	114.5	60
1	876671	114.7	70
1	877853	114.9	80
1	879528	115.1	90
1	880789	115.3	100
1	882390	115.5	110
1	883970	115.7	120
1	885408	115.9	130
1	886886	116.1	140
1	888324	116.3	150
1	889780	116.5	160
1	891220	116.7	170
1	892642	116.9	180
1	894142	117.1	190
1	895574	117.3	200
1	897012	117.5	210
1	898460	117.7	220
1	899630	117.9	230
1	901117	118.1	240
1	902869	118.3	250
1	904303	118.5	260
1	905751	118.7	270
1	907197	118.9	280
1	908675	119.1	290
1	910115	119.3	300
1	911557	119.5	310
1	912993	119.7	320
1	914443	119.9	330
1	915925	120.1	340
1	917095	120.3	350
1	918752	120.5	360
1	920268	120.7	370
1	921521	120.9	380
1	923212	121.1	390
1	924652	121.3	400
1	925939	121.5	410
1	927490	121.7	420
1	930717	122.132	430
1	932138	122.363	440
1	932138	122.363	450
1	933003	122.5	450
1	933017	122.5	460
1	934884	122.7	20
1	936338	122.9	30
1	937820	123.1	40
1	939256	123.3	50
1	940710	123.5	60
1	942148	123.7	70
1	943429	123.9	80
1	944814	124.1	90
1	947981	124.532	100
1	949722	124.763	110
1	949722	124.763	120
1	950729	124.9	130
1	952417	125.1	140
1	953867	125.3	150
1	955309	125.5	160
1	956745	125.7	170
1	957899	125.9	180
1	959483	126.1	190
1	960970	126.3	200
1	962568	126.5	210
1	963860	126.7	220
1	965437	126.9	230
1	966953	127.1	240
1	968244	127.3	250
1	969807	127.5	260
1	971274	127.7	270
1	972574	127.9	280
1	974186	128.1	290
1	975647	128.3	300
1	977099	128.5	310
1	978539	128.7	320
1	979973	128.9	330
1	981457	129.1	340
1	982892	129.3	350
1	983979	129.5	360
1	985076	129.7	370
1	986175	129.9	380
1	987318	130.1	390
1	989486	130.53	400
1	989486	130.53	410
1	990343	130.7	420
1	991679	130.9	430
1	992864	131.1	440
1	993953	131.3	450
1	995042	131.5	450
1	995055	131.5	460
1	996164	131.7	20
1	997269	131.9	30
1	998408	132.1	40
1	999505	132.3	50
1	1000596	132.5	60
1	1001691	132.7	70
1	1002792	132.9	80
1	1003933	133.1	90
1	1005024	133.3	100
1	1006121	133.5	110
1	1007212	133.7	120
1	1008313	133.9	130
1	1009452	134.1	140
1	1010543	134.3	150
1	1011642	134.5	160
1	1012739	134.7	170
1	1013564	134.9	180
1	1014897	135.1	190
1	1015945	135.3	200
1	1017157	135.5	210
1	1018292	135.7	220
1	1019115	135.9	230
1	1021765	136.332	240
1	1021765	136.332	250
1	1022638	136.5	260
1	1023861	136.7	270
1	1024956	136.9	280
1	1026079	137.1	290
1	1027186	137.3	300
1	1028132	137.5	310
1	1029384	137.7	320
1	1030477	137.9	330
1	1031616	138.1	340
1	1032713	138.3	350
1	1033804	138.5	360
1	1034899	138.7	370
1	1035734	138.9	380
1	1038360	139.33	390
1	1038360	139.33	400
1	1039259	139.5	410
1	1040458	139.7	420
1	1041555	139.9	430
1	1042700	140.1	440
1	1043787	140.3	450
1	1044874	140.5	450
1	1044887	140.5	460
1	1046004	140.7	20
1	1047097	140.9	30
1	1048244	141.1	40
1	1049341	141.3	50
1	1050430	141.5	60
1	1051533	141.7	70
1	1052624	141.9	80
1	1053620	142.1	90
1	1054862	142.3	100
1	1055965	142.5	110
1	1057066	142.7	120
1	1058159	142.9	130
1	1060505	143.331	140
1	1060505	143.331	150
1	1061392	143.5	160
1	1062601	143.7	170
1	1063704	143.9	180
1	1064577	144.1	190
1	1065852	144.3	200
1	1066896	144.5	210
1	1068140	144.7	220
1	1070538	145.247	230
1	1070538	145.247	240
1	1072770	145.534	250
1	1072770	145.534	260
1	1074983	145.934	270
1	1074983	145.934	280
1	1075891	146.1	290
1	1077100	146.3	300
1	1078191	146.5	310
1	1079014	146.7	320
1	1080311	146.9	330
1	1081548	147.1	340
1	1082383	147.3	350
1	1083660	147.5	360
1	1084851	147.7	370
1	1085948	147.9	380
1	1087091	148.1	390
1	1089391	148.53	400
1	1089391	148.53	410
1	1090276	148.7	420
1	1091493	148.9	430
1	1092630	149.1	440
1	1093719	149.3	450
1	1094544	149.5	450
1	1094557	149.5	460
1	1095626	149.7	30
1	1098333	150.131	40
1	1098333	150.131	50
1	1099227	150.3	60
1	1100430	150.5	70
1	1101525	150.7	80
1	1102475	150.9	90
1	1103735	151.1	100
1	1104594	151.3	110
1	1105653	151.5	120
1	1106942	151.7	130
1	1108197	151.9	140
1	1109340	152.1	150
1	1110435	152.3	160
1	1111532	152.5	170
1	1112625	152.7	180
1	1113714	152.9	190
1	1114710	153.1	200
1	1115680	153.3	210
1	1116751	153.5	220
1	1118032	153.7	230
1	1119301	153.9	240
1	1120436	154.1	250
1	1121535	154.3	260
1	1122626	154.5	270
1	1123719	154.7	280
1	1125820	155.133	290
1	1125820	155.133	300
1	1126674	155.3	310
1	1127577	155.5	320
1	1128968	155.7	330
1	1130407	155.9	340
1	1131556	156.1	350
1	1132647	156.3	360
1	1133744	156.5	370
1	1134577	156.7	380
1	1137095	157.133	390
1	1137095	157.133	400
1	1137836	157.3	410
1	1139067	157.5	420
1	1140426	157.7	430
1	1141543	157.9	440
1	1142678	158.1	450
1	1144285	158.5	450
1	1145014	158.618	10
1	1145014	158.618	20
1	1145659	158.7	30
1	1147098	158.9	40
1	1148255	159.1	50
1	1149344	159.3	60
1	1150443	159.5	70
1	1151534	159.7	80
1	1152631	159.9	90
1	1153774	160.1	100
1	1155929	160.53	110
1	1157271	160.762	120
1	1157271	160.762	130
1	1158006	160.9	140
1	1159333	161.1	150
1	1160436	161.3	160
1	1161532	161.5	170
1	1162630	161.7	180
1	1163721	161.9	190
1	1164860	162.1	200
1	1165961	162.3	210
1	1167056	162.5	220
1	1168153	162.7	230
1	1169238	162.9	240
1	1170385	163.1	250
1	1171484	163.3	260
1	1172573	163.5	270
1	1173676	163.7	280
1	1174769	163.9	290
1	1175908	164.1	300
1	1176848	164.3	310
1	1178064	164.5	320
1	1178939	164.7	330
1	1180224	164.9	340
1	1181197	165.1	350
1	1182330	165.3	360
1	1183677	165.5	370
1	1184786	165.7	380
1	1185879	165.9	390
1	1188088	166.331	400
1	1189341	166.617	410
1	1189341	166.617	420
1	1189956	166.7	430
1	1191290	166.9	440
1	1192566	167.1	450
1	1193679	167.3	460
1	1194764	167.5	460
1	1194777	167.5	470
1	1195906	167.7	20
1	1196993	167.9	30
1	1198142	168.1	40
1	1199243	168.3	50
1	1200318	168.5	60
1	1201433	168.7	70
1	1202514	168.9	80
1	1203663	169.1	90
1	1204754	169.3	100
1	1205847	169.5	110
1	1206791	169.7	120
1	1208043	169.9	130
1	1209184	170.1	140
1	1210289	170.3	150
1	1211382	170.5	160
1	1212473	170.7	170
1	1214830	171.224	180
1	1214830	171.224	190
1	1215429	171.3	200
1	1216918	171.5	210
1	1217868	171.7	220
1	1219088	171.9	230
1	1220265	172.1	240
1	1221366	172.3	250
1	1222463	172.5	260
1	1223556	172.7	270
1	1224651	172.9	280
1	1225782	173.1	290
1	1226885	173.3	300
1	1227978	173.5	310
1	1230098	173.933	320
1	1230098	173.933	330
1	1231082	174.1	340
1	1232440	174.3	350
1	1233551	174.5	360
1	1234386	174.7	370
1	1235619	174.9	380
1	1236914	175.1	390
vector 15 FastSMRModel.logicComputer[0].node[6] QdLengthVector:vector ETV
attr source QdLength
attr title "Qd Length, vector"
vector 16 FastSMRModel.logicComputer[0].node[5] QdLengthVector:vector ETV
attr source QdLength
attr title "Qd Length, vector"
vector 17 FastSMRModel.logicComputer[0].node[7] QdLengthVector:vector ETV
attr source QdLength
attr title "Qd Length, vector"
5	5594	10.1	30
5	7501	10.3	40
5	9290	10.5	50
5	11069	10.7	60
5	12846	10.9	70
5	14530	11.1	80
5	20086	11.72	90
5	23582	12.142	100
5	26952	12.561	110
5	30065	12.982	120
5	30065	12.982	130
5	30065	12.982	140
5	30065	12.982	150
5	30065	12.982	160
5	30065	12.982	170
5	31934	13.1	180
5	34626	13.3	190
5	36419	13.5	200
5	37901	13.7	210
5	39881	13.9	220
5	44247	14.5	220
5	44740	14.522	230
5	48972	14.942	20
5	52398	15.365	30
5	52398	15.365	40
5	52398	15.365	50
5	52398	15.365	60
5	52398	15.365	70
5	54135	15.5	80
5	56235	15.7	90
5	58143	15.9	100
5	60002	16.1	110
5	61799	16.3	120
5	63582	16.5	130
5	68143	17.126	140
5	68143	17.126	150
5	68143	17.126	160
5	70021	17.3	170
5	71951	17.5	180
5	73745	17.7	190
5	75249	17.9	200
5	77563	18.1	210
5	78942	18.3	220
5	81376	18.5	230
5	83528	18.7	240
5	85130	18.9	250
5	87170	19.1	260
5	88955	19.3	270
5	90416	19.5	280
5	91877	19.7	290
5	96787	20.319	300
5	98598	20.67	310
5	98598	20.67	320
5	98598	20.67	330
5	104367	21.126	340
5	104367	21.126	350
5	104367	21.126	360
5	106548	21.3	370
5	112378	21.921	380
5	112378	21.921	390
5	115376	22.344	400
5	115376	22.344	410
5	115376	22.344	420
5	116989	22.5	430
5	119131	22.7	440
5	120608	22.9	450
5	125803	23.5	450
5	126207	23.518	460
5	126207	23.518	470
5	126207	23.518	480
5	127502	23.7	470
5	130241	23.9	50
5	132573	24.1	60
5	134358	24.3	70
5	136135	24.5	80
5	137588	24.7	90
5	142626	25.32	100
5	146647	25.741	110
5	146647	25.741	120
5	146647	25.741	130
5	146647	25.741	140
5	148323	25.9	150
5	150595	26.1	160
5	152419	26.3	170
5	154011	26.5	180
5	156003	26.7	190
5	157788	26.9	200
5	159306	27.1	210
5	161312	27.3	220
5	163205	27.5	230
5	164990	27.7	240
5	166773	27.9	250
5	168594	28.1	260
5	170379	28.3	270
5	172174	28.5	280
5	177613	29.12	290
5	177613	29.12	300
5	177613	29.12	310
5	179262	29.3	320
5	181181	29.5	330
5	182976	29.7	340
5	184761	29.9	350
5	186590	30.1	360
5	188375	30.3	370
5	190164	30.5	380
5	194711	31.118	390
5	194711	31.118	400
5	194711	31.118	410
5	196739	31.3	420
5	198718	31.5	430
5	200860	31.7	440
5	202782	31.9	450
5	204615	32.1	460
5	206080	32.3	470
5	207545	32.5	470
5	207560	32.5	480
5	209992	32.7	490
5	211508	32.9	50
5	213675	33.1	60
5	215170	33.3	70
5	216649	33.5	80
5	219021	33.7	90
5	220879	33.9	100
5	222393	34.1	110
5	223871	34.3	120
5	229480	34.92	130
5	229480	34.92	140
5	233107	35.339	150
5	233107	35.339	160
5	233107	35.339	170
5	234339	35.5	180
5	236552	35.7	190
5	238073	35.9	200
5	240683	36.1	210
5	242326	36.3	220
5	244452	36.5	230
5	246267	36.7	240
5	248058	36.9	250
5	249883	37.1	260
5	251481	37.3	270
5	253461	37.5	280
5	258155	38.123	290
5	258155	38.123	300
5	258155	38.123	310
5	259604	38.3	320
5	262251	38.5	330
5	264268	38.7	340
5	266043	38.9	350
5	267900	39.1	360
5	269671	39.3	370
5	271464	39.5	380
5	273247	39.7	390
5	274708	39.9	400
5	276233	40.1	410
5	278607	40.3	420
5	279944	40.5	430
5	281633	40.7	440
5	283861	40.9	450
5	285601	41.1	460
5	286938	41.3	470
5	288858	41.5	470
5	288878	41.5	480
5	290472	41.7	490
5	296166	42.318	50
5	296166	42.318	60
5	296166	42.318	70
5	301951	42.918	80
5	301951	42.918	90
5	306026	43.341	100
5	306026	43.341	110
5	306026	43.341	120
5	307246	43.5	130
5	309224	43.7	140
5	310874	43.9	150
5	313253	44.1	160
5	315050	44.3	170
5	316843	44.5	180
5	318319	44.7	190
5	320313	44.9	200
5	322254	45.1	210
5	324041	45.3	220
5	325828	45.5	230
5	327298	45.7	240
5	329304	45.9	250
5	330930	46.1	260
5	332940	46.3	270
5	334516	46.5	280
5	336337	46.7	290
5	338439	46.9	300
5	340119	47.1	310
5	342044	47.3	320
5	343689	47.5	330
5	345601	47.7	340
5	347430	47.9	350
5	348786	48.1	360
5	350376	48.3	370
5	356276	48.919	380
5	356276	48.919	390
5	356276	48.919	400
5	358168	49.1	410
5	362205	49.721	420
5	362205	49.721	430
5	362205	49.721	440
5	364086	49.9	450
5	366654	50.1	460
5	368191	50.3	470
5	370646	50.5	470
5	373765	50.918	10
5	373765	50.918	20
5	373765	50.918	30
5	375791	51.1	40
5	378290	51.3	50
5	380076	51.5	60
5	381544	51.7	70
5	383007	51.9	80
5	389108	52.521	90
5	389108	52.521	100
5	389108	52.521	110
5	390765	52.7	120
5	392060	52.9	130
5	397727	53.518	140
5	397727	53.518	150
5	397727	53.518	160
5	399205	53.7	170
5	401130	53.9	180
5	402689	54.1	190
5	405237	54.3	200
5	407071	54.5	210
5	412723	55.119	220
5	412723	55.119	230
5	412723	55.119	240
5	414390	55.3	250
5	416309	55.5	260
5	418086	55.7	270
5	419867	55.9	280
5	421704	56.1	290
5	423499	56.3	300
5	425274	56.5	310
5	427061	56.7	320
5	430573	57.319	330
5	430573	57.319	340
5	434604	57.741	350
5	434604	57.741	360
5	434604	57.741	370
5	436154	57.9	380
5	438671	58.1	390
5	440338	58.3	400
5	442984	58.5	410
5	445182	58.7	420
5	446794	58.9	430
5	448822	59.1	440
5	450605	59.3	450
5	452071	59.5	450
5	452086	59.5	460
5	454142	59.7	470
5	456047	59.9	40
5	457687	60.1	50
5	459363	60.3	60
5	463912	60.919	70
5	463912	60.919	80
5	467999	61.342	90
5	467999	61.342	100
5	467999	61.342	110
5	470050	61.5	120
5	472226	61.7	130
5	473873	61.9	140
5	475740	62.1	150
5	477242	62.3	160
5	479614	62.5	170
5	481462	62.7	180
5	486776	63.319	190
5	486776	63.319	200
5	486776	63.319	210
5	488352	63.5	220
5	490497	63.7	230
5	492282	63.9	240
5	497715	64.519	250
5	497715	64.519	260
5	497715	64.519	270
5	499364	64.7	280
5	501140	64.9	290
5	502780	65.1	300
5	504287	65.3	310
5	506665	65.5	320
5	508511	65.7	330
5	509649	65.9	340
5	511490	66.1	350
5	513883	66.3	360
5	515753	66.5	370
5	517550	66.7	380
5	519325	66.9	390
5	521160	67.1	400
5	526553	67.721	410
5	526553	67.721	420
5	526553	67.721	430
5	528206	67.9	440
5	532998	68.5	440
5	533699	68.532	450
5	533699	68.532	460
5	533699	68.532	470
5	535433	68.7	470
5	541084	69.319	50
5	541084	69.319	60
5	541084	69.319	70
5	542745	69.5	80
5	544658	69.7	90
5	546139	69.9	100
5	547341	70.1	110
5	549733	70.3	120
5	551886	70.5	130
5	553223	70.7	140
5	559188	71.32	150
5	559188	71.32	160
5	559188	71.32	170
5	560839	71.5	180
5	562573	71.7	190
5	564563	71.9	200
5	566193	72.1	210
5	567863	72.3	220
5	569187	72.5	230
5	570759	72.7	240
5	572240	72.9	250
5	573725	73.1	260
5	576642	73.6	270
5	576642	73.6	280
5	577325	73.7	290
5	578891	73.9	300
5	580876	74.1	310
5	582458	74.3	320
5	583715	74.5	330
5	585350	74.7	340
5	588068	75.13	350
5	588068	75.13	360
5	589472	75.3	370
5	592301	75.73	380
5	593695	75.959	390
5	593695	75.959	400
5	594962	76.1	410
5	596976	76.3	420
5	598331	76.5	430
5	599982	76.7	440
5	601420	76.9	450
5	602914	77.1	460
5	604195	77.3	470
5	605776	77.5	470
5	605790	77.5	480
5	607278	77.7	20
5	608723	77.9	30
5	612213	78.403	40
5	612213	78.403	50
5	612861	78.5	60
5	614252	78.7	70
5	615907	78.9	80
5	617501	79.1	90
5	618939	79.3	100
5	620389	79.5	110
5	621632	79.7	120
5	623269	79.9	130
5	624754	80.1	140
5	626006	80.3	150
5	627633	80.5	160
5	630774	80.93	170
5	630774	80.93	180
5	631990	81.1	190
5	633520	81.3	200
5	634952	81.5	210
5	636394	81.7	220
5	637828	81.9	230
5	639322	82.1	240
5	640758	82.3	250
5	642188	82.5	260
5	643638	82.7	270
5	645076	82.9	280
5	646253	83.1	290
5	647900	83.3	300
5	649305	83.5	310
5	650900	83.7	320
5	654065	84.13	330
5	654065	84.13	340
5	655221	84.3	350
5	656749	84.5	360
5	658179	84.7	370
5	659129	84.9	380
5	661017	85.1	390
5	664248	85.53	400
5	664248	85.53	410
5	665406	85.7	420
5	666934	85.9	430
5	668221	86.1	440
5	669872	86.3	450
5	671290	86.5	450
5	672938	86.734	10
5	672938	86.734	20
5	673843	86.9	30
5	675651	87.1	40
5	678918	87.534	50
5	678918	87.534	60
5	680009	87.7	70
5	681575	87.9	80
5	683058	88.1	90
5	684494	88.3	100
5	685936	88.5	110
5	687374	88.7	120
5	688814	88.9	130
5	690300	89.1	140
5	691746	89.3	150
5	693184	89.5	160
5	696200	89.934	170
5	697527	90.169	180
5	697527	90.169	190
5	698507	90.3	200
5	700481	90.5	210
5	701437	90.7	220
5	703293	90.9	230
5	704889	91.1	240
5	706333	91.3	250
5	707307	91.5	260
5	709086	91.7	270
5	710484	91.9	280
5	712171	92.1	290
5	713613	92.3	300
5	714742	92.5	310
5	716139	92.7	320
5	717779	92.9	330
5	719461	93.1	340
5	720907	93.3	350
5	722335	93.5	360
5	723785	93.7	370
5	725227	93.9	380
5	726554	94.1	390
5	728152	94.3	400
5	729597	94.5	410
5	730724	94.7	420
5	732371	94.9	430
5	733985	95.1	440
5	735421	95.3	450
5	736849	95.5	450
5	736863	95.5	460
5	738355	95.7	20
5	739787	95.9	30
5	741271	96.1	40
5	742715	96.3	50
5	744159	96.5	60
5	745601	96.7	70
5	747047	96.9	80
5	748523	97.1	90
5	749963	97.3	100
5	751397	97.5	110
5	752851	97.7	120
5	754285	97.9	130
5	755763	98.1	140
5	757207	98.3	150
5	758336	98.5	160
5	759836	98.7	170
5	761540	98.9	180
5	762890	99.1	190
5	764480	99.3	200
5	765929	99.5	210
5	767367	99.7	220
5	768809	99.9	230
5	771543	100.332	240
5	771543	100.332	250
5	772909	100.5	260
5	774639	100.7	270
5	776089	100.9	280
5	779324	101.337	290
5	779324	101.337	300
5	780360	101.5	310
5	781932	101.7	320
5	783382	101.9	330
5	784870	102.1	340
5	786308	102.3	350
5	789423	102.731	360
5	789423	102.731	370
5	790555	102.9	380
5	792137	103.1	390
5	793384	103.3	400
5	794720	103.5	410
5	796371	103.7	420
5	797471	103.9	430
5	799303	104.1	440
5	800899	104.3	450
5	802321	104.5	450
5	802335	104.5	460
5	803811	104.7	20
5	805241	104.9	30
5	806741	105.1	40
5	808163	105.3	50
5	809617	105.5	60
5	812804	105.937	70
5	812804	105.937	80
5	813904	106.1	90
5	815460	106.3	100
5	816902	106.5	110
5	818332	106.7	120
5	819776	106.9	130
5	821254	107.1	140
5	822700	107.3	150
5	824140	107.5	160
5	825580	107.7	170
5	827024	107.9	180
5	828516	108.1	190
5	829803	108.3	200
5	831203	108.5	210
5	832541	108.7	220
5	833936	108.9	230
5	835620	109.1	240
5	837252	109.3	250
5	838694	109.5	260
5	840138	109.7	270
5	841572	109.9	280
5	842919	110.1	290
5	844470	110.3	300
5	845952	110.5	310
5	847093	110.7	320
5	850484	111.233	330
5	850484	111.233	340
5	850987	111.3	350
5	853159	111.5	360
5	854419	111.7	370
5	857797	112.132	380
5	857797	112.132	390
5	860843	112.531	400
5	860843	112.531	410
5	861981	112.7	420
5	863507	112.9	430
5	866688	113.331	440
5	866688	113.331	450
5	867826	113.5	450
5	867840	113.5	460
5	869408	113.7	20
5	870541	113.9	30
5	872238	114.1	40
5	873798	114.3	50
5	875230	114.5	60
5	878357	114.932	70
5	878357	114.932	80
5	879531	115.1	90
5	880792	115.3	100
5	882393	115.5	110
5	883973	115.7	120
5	885411	115.9	130
5	886889	116.1	140
5	888327	116.3	150
5	889783	116.5	160
5	891223	116.7	170
5	892645	116.9	180
5	894145	117.1	190
5	895577	117.3	200
5	897015	117.5	210
5	900019	117.931	220
5	900019	117.931	230
5	901120	118.1	240
5	902872	118.3	250
5	904306	118.5	260
5	905754	118.7	270
5	907200	118.9	280
5	908678	119.1	290
5	910118	119.3	300
5	911560	119.5	310
5	912996	119.7	320
5	914446	119.9	330
5	917589	120.33	340
5	917589	120.33	350
5	918755	120.5	360
5	920271	120.7	370
5	921524	120.9	380
5	923215	121.1	390
5	924655	121.3	400
5	925942	121.5	410
5	927493	121.7	420
5	928826	121.9	430
5	930131	122.1	440
5	931565	122.3	450
5	933006	122.5	450
5	933020	122.5	460
5	934887	122.7	20
5	936341	122.9	30
5	937823	123.1	40
5	939259	123.3	50
5	940713	123.5	60
5	942151	123.7	70
5	945332	124.132	80
5	945332	124.132	90
5	946450	124.3	100
5	947534	124.5	110
5	948878	124.7	120
5	950732	124.9	130
5	952420	125.1	140
5	953870	125.3	150
5	955312	125.5	160
5	956748	125.7	170
5	957902	125.9	180
5	959486	126.1	190
5	960973	126.3	200
5	962571	126.5	210
5	963863	126.7	220
5	965440	126.9	230
5	966956	127.1	240
5	968247	127.3	250
5	969810	127.5	260
5	971277	127.7	270
5	972577	127.9	280
5	974189	128.1	290
5	975650	128.3	300
5	977102	128.5	310
5	978542	128.7	320
5	979976	128.9	330
5	981460	129.1	340
5	982894	129.3	350
5	983981	129.5	360
5	985078	129.7	370
5	986177	129.9	380
5	987320	130.1	390
5	988406	130.3	400
5	989198	130.5	410
5	990345	130.7	420
5	991681	130.9	430
5	992866	131.1	440
5	993955	131.3	450
5	995044	131.5	450
5	995057	131.5	460
5	996166	131.7	20
5	997271	131.9	30
5	998410	132.1	40
5	999507	132.3	50
5	1000598	132.5	60
5	1001693	132.7	70
5	1002794	132.9	80
5	1003935	133.1	90
5	1005026	133.3	100
5	1006123	133.5	110
5	1007214	133.7	120
5	1008315	133.9	130
5	1009454	134.1	140
5	1010545	134.3	150
5	1011644	134.5	160
5	1013938	134.931	170
5	1013938	134.931	180
5	1014899	135.1	190
5	1015947	135.3	200
5	1017159	135.5	210
5	1019483	135.93	220
5	1019483	135.93	230
5	1020458	136.1	240
5	1021336	136.3	250
5	1022640	136.5	260
5	1023863	136.7	270
5	1024958	136.9	280
5	1026081	137.1	290
5	1027188	137.3	300
5	1028134	137.5	310
5	1029386	137.7	320
5	1030479	137.9	330
5	1031618	138.1	340
5	1032715	138.3	350
5	1033806	138.5	360
5	1036116	138.932	370
5	1036116	138.932	380
5	1037057	139.1	390
5	1037953	139.3	400
5	1039261	139.5	410
5	1040460	139.7	420
5	1041557	139.9	430
5	1042702	140.1	440
5	1043789	140.3	450
5	1044876	140.5	450
5	1044889	140.5	460
5	1046006	140.7	20
5	1047099	140.9	30
5	1048246	141.1	40
5	1049343	141.3	50
5	1050432	141.5	60
5	1051535	141.7	70
5	1052626	141.9	80
5	1053622	142.1	90
5	1054864	142.3	100
5	1055967	142.5	110
5	1057068	142.7	120
5	1058161	142.9	130
5	1059296	143.1	140
5	1060089	143.3	150
5	1061394	143.5	160
5	1062603	143.7	170
5	1064959	144.132	180
5	1064959	144.132	190
5	1065854	144.3	200
5	1066898	144.5	210
5	1069226	144.929	220
5	1070162	145.161	230
5	1070162	145.161	240
5	1071005	145.3	250
5	1072327	145.5	260
5	1073633	145.7	270
5	1074537	145.9	280
5	1075893	146.1	290
5	1077102	146.3	300
5	1079404	146.732	310
5	1079404	146.732	320
5	1080313	146.9	330
5	1082759	147.332	340
5	1082759	147.332	350
5	1083662	147.5	360
5	1084853	147.7	370
5	1085950	147.9	380
5	1087093	148.1	390
5	1088190	148.3	400
5	1088982	148.5	410
5	1090278	148.7	420
5	1091495	148.9	430
5	1092632	149.1	440
5	1094546	149.5	440
5	1094939	149.531	450
5	1096184	149.764	20
5	1096184	149.764	30
5	1096921	149.9	40
5	1097912	150.1	50
5	1099229	150.3	60
5	1100432	150.5	70
5	1101527	150.7	80
5	1102477	150.9	90
5	1104960	151.33	100
5	1106211	151.565	110
5	1106211	151.565	120
5	1106944	151.7	130
5	1108199	151.9	140
5	1109342	152.1	150
5	1110437	152.3	160
5	1111534	152.5	170
5	1112627	152.7	180
5	1113716	152.9	190
5	1116062	153.33	200
5	1117295	153.562	210
5	1117295	153.562	220
5	1118034	153.7	230
5	1119303	153.9	240
5	1120438	154.1	250
5	1121537	154.3	260
5	1122628	154.5	270
5	1123721	154.7	280
5	1124824	154.9	290
5	1127049	155.332	300
5	1127925	155.564	310
5	1127925	155.564	320
5	1128970	155.7	330
5	1130409	155.9	340
5	1131558	156.1	350
5	1132649	156.3	360
5	1134959	156.732	370
5	1134959	156.732	380
5	1135862	156.9	390
5	1138179	157.333	400
5	1138179	157.333	410
5	1139069	157.5	420
5	1140428	157.7	430
5	1141545	157.9	440
5	1142680	158.1	450
5	1144287	158.5	450
5	1144560	158.531	450
5	1144560	158.531	460
5	1145661	158.7	30
5	1147100	158.9	40
5	1148257	159.1	50
5	1149346	159.3	60
5	1150445	159.5	70
5	1151536	159.7	80
5	1152633	159.9	90
5	1153776	160.1	100
5	1154865	160.3	110
5	1155506	160.5	120
5	1156670	160.7	130
5	1158008	160.9	140
5	1159335	161.1	150
5	1160438	161.3	160
5	1161534	161.5	170
5	1162632	161.7	180
5	1163723	161.9	190
5	1164862	162.1	200
5	1165963	162.3	210
5	1167058	162.5	220
5	1168155	162.7	230
5	1169240	162.9	240
5	1170387	163.1	250
5	1171486	163.3	260
5	1172575	163.5	270
5	1173678	163.7	280
5	1174771	163.9	290
5	1175910	164.1	300
5	1176850	164.3	310
5	1179299	164.729	320
5	1179299	164.729	330
5	1181444	165.132	340
5	1181444	165.132	350
5	1182332	165.3	360
5	1183679	165.5	370
5	1184788	165.7	380
5	1185881	165.9	390
5	1187020	166.1	400
5	1188895	166.532	410
5	1188895	166.532	420
5	1189958	166.7	430
5	1191292	166.9	440
5	1192568	167.1	450
5	1193681	167.3	460
5	1194766	167.5	460
5	1194779	167.5	470
5	1195908	167.7	20
5	1196995	167.9	30
5	1198144	168.1	40
5	1199245	168.3	50
5	1200320	168.5	60
5	1201435	168.7	70
5	1202516	168.9	80
5	1203665	169.1	90
5	1204756	169.3	100
5	1205849	169.5	110
5	1206793	169.7	120
5	1208045	169.9	130
5	1209186	170.1	140
5	1210291	170.3	150
5	1211384	170.5	160
5	1212475	170.7	170
5	1214438	171.139	180
5	1214438	171.139	190
5	1215431	171.3	200
5	1216920	171.5	210
5	1217870	171.7	220
5	1219090	171.9	230
5	1220267	172.1	240
5	1221368	172.3	250
5	1222465	172.5	260
5	1223558	172.7	270
5	1224653	172.9	280
5	1225784	173.1	290
5	1226887	173.3	300
5	1229062	173.731	310
5	1229062	173.731	320
5	1229784	173.9	330
5	1231084	174.1	340
5	1232442	174.3	350
5	1234822	174.742	360
5	1234822	174.742	370
5	1235621	174.9	380
5	1236916	175.1	390
5	1238013	175.3	400
5	1238765	175.5	410
5	1241344	176.5	410
5	1242861	178.671	450
5	1242861	178.671	450
5	1242861	178.671	450
5	1242861	178.671	450
5	1242861	178.671	460
5	1242861	178.671	470
5	1242861	178.671	480
5	1242861	178.671	490
5	1250577	182.794	500
5	1250577	182.794	510
5	1250577	182.794	520
5	1257281	183.194	530
5	1257281	183.194	540
5	1257281	183.194	550
5	1264363	183.591	560
5	1264363	183.591	570
5	1264363	183.591	580
5	1264363	183.591	590
5	1264363	183.591	600
5	1264363	183.591	610
5	1264363	183.591	620
5	1264363	183.591	630
5	1269962	183.984	640
5	1269962	183.984	650
5	1269962	183.984	660
5	1269962	183.984	670
5	1269962	183.984	680
5	1269962	183.984	690
5	1269962	183.984	700
5	1269962	183.984	710
5	1274814	184.378	720
5	1274814	184.378	730
5	1274814	184.378	740
5	1274814	184.378	750
5	1274814	184.378	760
5	1274814	184.378	770
5	1274814	184.378	780
5	1274814	184.378	790
5	1274814	184.378	800
5	1274814	184.378	810
5	1274814	184.378	820
5	1274814	184.378	830
5	1274814	184.378	840
5	1281919	184.773	850
5	1281919	184.773	860
5	1281919	184.773	870
5	1283302	184.9	880
5	1285577	185.1	890
5	1287529	185.3	900
5	1289433	185.5	900
5	1289445	185.5	910
5	1291341	185.7	920
5	1293352	185.9	930
3	5592	10.1	30
3	7499	10.3	40
3	9288	10.5	50
3	11067	10.7	60
3	14291	11.083	70
3	14528	11.1	80
3	16272	11.3	90
3	18014	11.5	100
3	19480	11.7	110
3	21244	11.9	120
3	22818	12.1	130
3	24540	12.3	140
3	26104	12.5	150
3	27836	12.7	160
3	29211	12.9	170
3	31932	13.1	180
3	34624	13.3	190
3	36417	13.5	200
3	37899	13.7	210
3	41301	14.086	220
3	44245	14.5	220
3	45066	14.565	230
3	45066	14.565	240
3	45066	14.565	250
3	46356	14.7	260
3	48210	14.9	50
3	49974	15.1	60
3	51556	15.3	70
3	56004	15.686	80
3	56233	15.7	90
3	58141	15.9	100
3	60000	16.1	110
3	61797	16.3	120
3	63580	16.5	130
3	68697	17.169	140
3	68697	17.169	150
3	68697	17.169	160
3	70019	17.3	170
3	71949	17.5	180
3	73743	17.7	190
3	75247	17.9	200
3	77561	18.1	210
3	78940	18.3	220
3	81374	18.5	230
3	83526	18.7	240
3	85128	18.9	250
3	87168	19.1	260
3	88953	19.3	270
3	90414	19.5	280
3	91875	19.7	290
3	93652	19.9	300
3	94944	20.1	310
3	96346	20.3	320
3	97590	20.5	330
3	99183	20.7	340
3	101353	20.9	350
3	103835	21.1	360
3	106546	21.3	370
3	108893	21.5	380
3	110419	21.7	390
3	116018	22.388	400
3	117948	22.571	410
3	117948	22.571	420
3	117948	22.571	430
3	119129	22.7	440
3	122797	23.082	450
3	123088	23.1	460
3	124643	23.3	470
3	125801	23.5	470
3	125816	23.5	480
3	127500	23.7	470
3	130239	23.9	50
3	132571	24.1	60
3	134356	24.3	70
3	137259	24.683	80
3	137586	24.7	90
3	139713	24.9	100
3	140986	25.1	110
3	142142	25.3	120
3	144182	25.5	130
3	148056	25.886	140
3	148321	25.9	150
3	150593	26.1	160
3	152417	26.3	170
3	154009	26.5	180
3	156001	26.7	190
3	157786	26.9	200
3	159304	27.1	210
3	161310	27.3	220
3	163203	27.5	230
3	164988	27.7	240
3	166771	27.9	250
3	168592	28.1	260
3	170377	28.3	270
3	172172	28.5	280
3	173961	28.7	290
3	175481	28.9	300
3	177003	29.1	310
3	179260	29.3	320
3	181179	29.5	330
3	182974	29.7	340
3	184759	29.9	350
3	186588	30.1	360
3	188373	30.3	370
3	190162	30.5	380
3	195241	31.161	390
3	195241	31.161	400
3	195241	31.161	410
3	198513	31.483	420
3	198716	31.5	430
3	200858	31.7	440
3	202780	31.9	450
3	204613	32.1	460
3	206078	32.3	470
3	207543	32.5	470
3	207558	32.5	480
3	211315	32.885	40
3	211506	32.9	50
3	213673	33.1	60
3	215168	33.3	70
3	216647	33.5	80
3	219019	33.7	90
3	220877	33.9	100
3	222391	34.1	110
3	223869	34.3	120
3	226239	34.5	130
3	227822	34.7	140
3	228997	34.9	150
3	231268	35.1	160
3	232665	35.3	170
3	234337	35.5	180
3	236550	35.7	190
3	238071	35.9	200
3	242022	36.285	210
3	242324	36.3	220
3	244450	36.5	230
3	246265	36.7	240
3	248056	36.9	250
3	249881	37.1	260
3	251479	37.3	270
3	253459	37.5	280
3	255250	37.7	290
3	256468	37.9	300
3	257655	38.1	310
3	259602	38.3	320
3	262249	38.5	330
3	264266	38.7	340
3	266041	38.9	350
3	267898	39.1	360
3	269669	39.3	370
3	271462	39.5	380
3	273245	39.7	390
3	274706	39.9	400
3	276231	40.1	410
3	278605	40.3	420
3	279942	40.5	430
3	283514	40.881	440
3	283859	40.9	450
3	286711	41.282	460
3	286936	41.3	470
3	288856	41.5	470
3	288876	41.5	480
3	290470	41.7	470
3	293029	41.9	50
3	294528	42.1	60
3	295688	42.3	70
3	298209	42.5	80
3	301182	42.884	90
3	301361	42.9	100
3	303783	43.1	110
3	305391	43.3	120
3	307244	43.5	130
3	310597	43.883	140
3	310872	43.9	150
3	313251	44.1	160
3	315048	44.3	170
3	316841	44.5	180
3	318317	44.7	190
3	320311	44.9	200
3	322252	45.1	210
3	324039	45.3	220
3	325826	45.5	230
3	327296	45.7	240
3	329302	45.9	250
3	330928	46.1	260
3	332938	46.3	270
3	334514	46.5	280
3	336335	46.7	290
3	339878	47.083	300
3	340117	47.1	310
3	343508	47.493	320
3	343687	47.5	330
3	345599	47.7	340
3	348597	48.087	350
3	348784	48.1	360
3	350374	48.3	370
3	352784	48.5	380
3	354385	48.7	390
3	355674	48.9	400
3	358166	49.1	410
3	362767	49.766	420
3	362767	49.766	430
3	362767	49.766	440
3	364084	49.9	450
3	366652	50.1	460
3	368189	50.3	470
3	370644	50.5	470
3	370659	50.5	480
3	372248	50.7	470
3	373412	50.9	30
3	375789	51.1	40
3	378288	51.3	50
3	380074	51.5	60
3	381542	51.7	70
3	383005	51.9	80
3	385437	52.1	90
3	387036	52.3	100
3	388490	52.5	110
3	390763	52.7	120
3	392058	52.9	130
3	393787	53.1	140
3	396020	53.3	150
3	397235	53.5	160
3	399203	53.7	170
3	401128	53.9	180
3	402687	54.1	190
3	405235	54.3	200
3	407069	54.5	210
3	408863	54.7	220
3	410599	54.9	230
3	412123	55.1	240
3	414388	55.3	250
3	416307	55.5	260
3	418084	55.7	270
3	419865	55.9	280
3	421702	56.1	290
3	423497	56.3	300
3	425272	56.5	310
3	427059	56.7	320
3	428329	56.9	330
3	429481	57.1	340
3	430313	57.3	350
3	432365	57.5	360
3	434181	57.7	370
3	436152	57.9	380
3	438669	58.1	390
3	440336	58.3	400
3	442982	58.5	410
3	445180	58.7	420
3	446792	58.9	430
3	448820	59.1	440
3	450603	59.3	450
3	452069	59.5	450
3	452084	59.5	460
3	454140	59.7	470
3	456045	59.9	40
3	457685	60.1	50
3	460451	60.482	60
3	460676	60.5	70
3	462268	60.7	80
3	463542	60.9	90
3	467020	61.282	100
3	467275	61.3	110
3	470048	61.5	120
3	473564	61.885	130
3	473871	61.9	140
3	475738	62.1	150
3	477240	62.3	160
3	479612	62.5	170
3	481460	62.7	180
3	483249	62.9	190
3	484825	63.1	200
3	486291	63.3	210
3	488350	63.5	220
3	490495	63.7	230
3	492280	63.9	240
3	494099	64.1	250
3	495645	64.3	260
3	497111	64.5	270
3	500931	64.89	280
3	501138	64.9	290
3	502778	65.1	300
3	504285	65.3	310
3	506663	65.5	320
3	509472	65.885	330
3	509647	65.9	340
3	511488	66.1	350
3	513881	66.3	360
3	515751	66.5	370
3	517548	66.7	380
3	519323	66.9	390
3	521158	67.1	400
3	522949	67.3	410
3	524477	67.5	420
3	525943	67.7	430
3	528204	67.9	440
3	530167	68.1	450
3	532807	68.488	460
3	532996	68.5	460
3	533011	68.5	470
3	535431	68.7	470
3	537424	68.9	50
3	539020	69.1	60
3	540480	69.3	70
3	542743	69.5	80
3	544656	69.7	90
3	546137	69.9	100
3	547339	70.1	110
3	549731	70.3	120
3	553012	70.685	130
3	554421	70.882	140
3	554674	70.9	150
3	557034	71.1	160
3	558572	71.3	170
3	560837	71.5	180
3	562571	71.7	190
3	564561	71.9	200
3	566191	72.1	210
3	568985	72.486	220
3	569186	72.5	230
3	570758	72.7	240
3	572239	72.9	250
3	573724	73.1	260
3	575153	73.3	270
3	576030	73.5	280
3	577324	73.7	290
3	578890	73.9	300
3	580875	74.1	310
3	582457	74.3	320
3	583714	74.5	330
3	585349	74.7	340
3	588490	75.175	350
3	588490	75.175	360
3	589471	75.3	370
3	591179	75.5	380
3	594194	76.002	390
3	594194	76.002	400
3	594961	76.1	410
3	596975	76.3	420
3	598330	76.5	430
3	599981	76.7	440
3	601419	76.9	450
3	603971	77.282	460
3	604194	77.3	470
3	605775	77.5	470
3	605789	77.5	480
3	607277	77.7	470
3	608722	77.9	30
3	610203	78.1	40
3	611383	78.3	50
3	612860	78.5	60
3	614251	78.7	70
3	615906	78.9	80
3	617500	79.1	90
3	618938	79.3	100
3	620388	79.5	110
3	621631	79.7	120
3	623268	79.9	130
3	624753	80.1	140
3	626005	80.3	150
3	627632	80.5	160
3	628584	80.7	170
3	630170	80.9	180
3	631989	81.1	190
3	633519	81.3	200
3	634951	81.5	210
3	636393	81.7	220
3	637827	81.9	230
3	639321	82.1	240
3	640757	82.3	250
3	642187	82.5	260
3	643637	82.7	270
3	645075	82.9	280
3	646252	83.1	290
3	649091	83.483	300
3	649304	83.5	310
3	650899	83.7	320
3	652345	83.9	330
3	653579	84.1	340
3	655220	84.3	350
3	656748	84.5	360
3	658178	84.7	370
3	659128	84.9	380
3	661016	85.1	390
3	662574	85.3	400
3	663758	85.5	410
3	665405	85.7	420
3	666933	85.9	430
3	668220	86.1	440
3	669871	86.3	450
3	671289	86.5	450
3	671303	86.5	460
3	672529	86.7	470
3	673842	86.9	30
3	675650	87.1	40
3	677214	87.3	50
3	678390	87.5	60
3	680008	87.7	70
3	681574	87.9	80
3	683057	88.1	90
3	684493	88.3	100
3	685935	88.5	110
3	687373	88.7	120
3	688813	88.9	130
3	690299	89.1	140
3	691745	89.3	150
3	693183	89.5	160
3	694615	89.7	170
3	695797	89.9	180
3	696927	90.1	190
3	698506	90.3	200
3	700480	90.5	210
3	701436	90.7	220
3	703292	90.9	230
3	704888	91.1	240
3	707131	91.485	250
3	707306	91.5	260
3	709085	91.7	270
3	710483	91.9	280
3	712170	92.1	290
3	713612	92.3	300
3	714741	92.5	310
3	716138	92.7	320
3	717778	92.9	330
3	719460	93.1	340
3	720906	93.3	350
3	722334	93.5	360
3	723784	93.7	370
3	726334	94.083	380
3	726553	94.1	390
3	728151	94.3	400
3	729596	94.5	410
3	730723	94.7	420
3	732370	94.9	430
3	733984	95.1	440
3	735420	95.3	450
3	736848	95.5	450
3	736862	95.5	460
3	738354	95.7	470
3	739786	95.9	30
3	741270	96.1	40
3	742714	96.3	50
3	744158	96.5	60
3	745600	96.7	70
3	747046	96.9	80
3	748522	97.1	90
3	749962	97.3	100
3	751396	97.5	110
3	752850	97.7	120
3	754284	97.9	130
3	755762	98.1	140
3	757206	98.3	150
3	759650	98.683	160
3	759835	98.7	170
3	762672	99.083	180
3	762889	99.1	190
3	764479	99.3	200
3	765928	99.5	210
3	767366	99.7	220
3	768808	99.9	230
3	770286	100.1	240
3	771165	100.3	250
3	772908	100.5	260
3	774638	100.7	270
3	777208	101.084	280
3	777425	101.1	290
3	778738	101.3	300
3	780359	101.5	310
3	781931	101.7	320
3	783381	101.9	330
3	784869	102.1	340
3	786307	102.3	350
3	787745	102.5	360
3	788921	102.7	370
3	790554	102.9	380
3	792136	103.1	390
3	793383	103.3	400
3	794719	103.5	410
3	797291	103.885	420
3	797470	103.9	430
3	799302	104.1	440
3	800898	104.3	450
3	802320	104.5	450
3	802334	104.5	460
3	803810	104.7	470
3	805240	104.9	30
3	806740	105.1	40
3	808162	105.3	50
3	809616	105.5	60
3	811056	105.7	70
3	812242	105.9	80
3	813903	106.1	90
3	815459	106.3	100
3	816901	106.5	110
3	818331	106.7	120
3	819775	106.9	130
3	821253	107.1	140
3	822699	107.3	150
3	824139	107.5	160
3	825579	107.7	170
3	827023	107.9	180
3	829555	108.281	190
3	829802	108.3	200
3	831202	108.5	210
3	832540	108.7	220
3	833935	108.9	230
3	835619	109.1	240
3	837251	109.3	250
3	838693	109.5	260
3	840137	109.7	270
3	842761	110.095	280
3	842918	110.1	290
3	844469	110.3	300
3	845951	110.5	310
3	847092	110.7	320
3	848729	110.9	330
3	850065	111.1	340
3	850986	111.3	350
3	853158	111.5	360
3	854418	111.7	370
3	856067	111.9	380
3	857404	112.1	390
3	858855	112.3	400
3	860347	112.5	410
3	861980	112.7	420
3	863506	112.9	430
3	864806	113.1	440
3	866192	113.3	450
3	867825	113.5	450
3	867839	113.5	460
3	869407	113.7	470
3	870540	113.9	30
3	872237	114.1	40
3	873797	114.3	50
3	875229	114.5	60
3	876673	114.7	70
3	877855	114.9	80
3	881287	115.328	90
3	881287	115.328	100
3	882392	115.5	110
3	883972	115.7	120
3	885410	115.9	130
3	886888	116.1	140
3	888326	116.3	150
3	889782	116.5	160
3	891222	116.7	170
3	892644	116.9	180
3	894144	117.1	190
3	895576	117.3	200
3	897014	117.5	210
3	898462	117.7	220
3	899632	117.9	230
3	901119	118.1	240
3	902871	118.3	250
3	904305	118.5	260
3	905753	118.7	270
3	907199	118.9	280
3	908677	119.1	290
3	910117	119.3	300
3	911559	119.5	310
3	912995	119.7	320
3	914445	119.9	330
3	915927	120.1	340
3	917097	120.3	350
3	918754	120.5	360
3	920270	120.7	370
3	921523	120.9	380
3	923214	121.1	390
3	925746	121.487	400
3	925941	121.5	410
3	928626	121.886	420
3	928825	121.9	430
3	930130	122.1	440
3	931564	122.3	450
3	933005	122.5	450
3	933019	122.5	460
3	934886	122.7	470
3	936340	122.9	30
3	937822	123.1	40
3	939258	123.3	50
3	940712	123.5	60
3	943206	123.882	70
3	943431	123.9	80
3	944816	124.1	90
3	947360	124.484	100
3	947533	124.5	110
3	948877	124.7	120
3	950731	124.9	130
3	952419	125.1	140
3	953869	125.3	150
3	955311	125.5	160
3	958615	125.982	170
3	958615	125.982	180
3	960759	126.282	190
3	960972	126.3	200
3	963655	126.685	210
3	963862	126.7	220
3	965439	126.9	230
3	968031	127.285	240
3	968246	127.3	250
3	969809	127.5	260
3	972363	127.885	270
3	972576	127.9	280
3	974188	128.1	290
3	975649	128.3	300
3	977101	128.5	310
3	978541	128.7	320
3	979975	128.9	330
3	981459	129.1	340
3	982893	129.3	350
3	983980	129.5	360
3	985077	129.7	370
3	986176	129.9	380
3	987319	130.1	390
3	988405	130.3	400
3	990212	130.688	410
3	990344	130.7	420
3	991680	130.9	430
3	992865	131.1	440
3	993954	131.3	450
3	995043	131.5	450
3	995056	131.5	460
3	996165	131.7	20
3	997270	131.9	30
3	998409	132.1	40
3	999506	132.3	50
3	1000597	132.5	60
3	1001692	132.7	70
3	1002793	132.9	80
3	1003934	133.1	90
3	1005025	133.3	100
3	1006122	133.5	110
3	1007213	133.7	120
3	1008314	133.9	130
3	1009453	134.1	140
3	1010544	134.3	150
3	1011643	134.5	160
3	1012740	134.7	170
3	1013565	134.9	180
3	1015778	135.288	190
3	1015946	135.3	200
3	1017158	135.5	210
3	1018293	135.7	220
3	1019116	135.9	230
3	1020457	136.1	240
3	1021335	136.3	250
3	1022639	136.5	260
3	1023862	136.7	270
3	1024957	136.9	280
3	1026080	137.1	290
3	1027941	137.482	300
3	1028133	137.5	310
3	1029385	137.7	320
3	1030478	137.9	330
3	1031617	138.1	340
3	1032714	138.3	350
3	1033805	138.5	360
3	1034900	138.7	370
3	1035735	138.9	380
3	1037056	139.1	390
3	1037952	139.3	400
3	1039260	139.5	410
3	1040459	139.7	420
3	1041556	139.9	430
3	1042701	140.1	440
3	1043788	140.3	450
3	1044875	140.5	450
3	1044888	140.5	460
3	1046005	140.7	20
3	1047098	140.9	30
3	1048245	141.1	40
3	1049342	141.3	50
3	1050431	141.5	60
3	1051534	141.7	70
3	1053445	142.083	80
3	1053621	142.1	90
3	1054863	142.3	100
3	1055966	142.5	110
3	1057067	142.7	120
3	1058160	142.9	130
3	1059295	143.1	140
3	1060088	143.3	150
3	1061393	143.5	160
3	1062602	143.7	170
3	1063705	143.9	180
3	1064578	144.1	190
3	1066731	144.483	200
3	1066897	144.5	210
3	1068141	144.7	220
3	1068980	144.9	230
3	1069779	145.1	240
3	1071004	145.3	250
3	1072326	145.5	260
3	1073632	145.7	270
3	1074536	145.9	280
3	1075892	146.1	290
3	1077101	146.3	300
3	1078192	146.5	310
3	1079015	146.7	320
3	1080312	146.9	330
3	1081549	147.1	340
3	1082384	147.3	350
3	1083661	147.5	360
3	1084852	147.7	370
3	1085949	147.9	380
3	1087092	148.1	390
3	1088189	148.3	400
3	1088981	148.5	410
3	1090277	148.7	420
3	1091494	148.9	430
3	1092631	149.1	440
3	1093720	149.3	450
3	1094545	149.5	450
3	1094558	149.5	460
3	1095627	149.7	30
3	1096920	149.9	40
3	1097911	150.1	50
3	1099228	150.3	60
3	1100431	150.5	70
3	1102308	150.886	80
3	1102476	150.9	90
3	1103736	151.1	100
3	1104595	151.3	110
3	1105654	151.5	120
3	1106943	151.7	130
3	1108198	151.9	140
3	1109341	152.1	150
3	1110436	152.3	160
3	1111533	152.5	170
3	1112626	152.7	180
3	1114539	153.083	190
3	1114711	153.1	200
3	1115681	153.3	210
3	1116752	153.5	220
3	1118033	153.7	230
3	1119302	153.9	240
3	1120437	154.1	250
3	1121536	154.3	260
3	1122627	154.5	270
3	1123720	154.7	280
3	1125368	155.084	290
3	1125500	155.1	300
3	1128291	155.612	310
3	1128291	155.612	320
3	1128969	155.7	330
3	1130408	155.9	340
3	1131557	156.1	350
3	1132648	156.3	360
3	1133745	156.5	370
3	1134578	156.7	380
3	1135861	156.9	390
3	1136795	157.1	400
3	1138858	157.483	410
3	1139068	157.5	420
3	1140427	157.7	430
3	1141544	157.9	440
3	1142679	158.1	450
3	1143772	158.3	460
3	1144286	158.5	460
3	1144299	158.5	470
3	1145660	158.7	30
3	1147099	158.9	40
3	1148256	159.1	50
3	1149345	159.3	60
3	1150444	159.5	70
3	1151535	159.7	80
3	1152632	159.9	90
3	1153775	160.1	100
3	1155369	160.488	110
3	1155505	160.5	120
3	1156669	160.7	130
3	1158007	160.9	140
3	1159334	161.1	150
3	1160437	161.3	160
3	1161533	161.5	170
3	1162631	161.7	180
3	1163722	161.9	190
3	1164861	162.1	200
3	1165962	162.3	210
3	1167057	162.5	220
3	1168154	162.7	230
3	1169239	162.9	240
3	1170386	163.1	250
3	1171485	163.3	260
3	1172574	163.5	270
3	1173677	163.7	280
3	1174770	163.9	290
3	1176689	164.288	300
3	1176849	164.3	310
3	1178065	164.5	320
3	1178940	164.7	330
3	1180225	164.9	340
3	1182099	165.283	350
3	1182331	165.3	360
3	1183678	165.5	370
3	1184787	165.7	380
3	1185880	165.9	390
3	1187019	166.1	400
3	1187803	166.3	410
3	1188586	166.5	420
3	1191113	166.884	430
3	1191291	166.9	440
3	1192567	167.1	450
3	1193680	167.3	460
3	1194765	167.5	460
3	1194778	167.5	470
3	1195907	167.7	20
3	1196994	167.9	30
3	1198143	168.1	40
3	1199244	168.3	50
3	1200319	168.5	60
3	1201434	168.7	70
3	1202515	168.9	80
3	1203664	169.1	90
3	1204755	169.3	100
3	1206610	169.682	110
3	1206792	169.7	120
3	1208044	169.9	130
3	1209185	170.1	140
3	1210290	170.3	150
3	1211383	170.5	160
3	1212474	170.7	170
3	1213565	170.9	180
3	1214141	171.1	190
3	1215430	171.3	200
3	1217703	171.687	210
3	1217869	171.7	220
3	1219089	171.9	230
3	1220266	172.1	240
3	1221367	172.3	250
3	1222464	172.5	260
3	1223557	172.7	270
3	1224652	172.9	280
3	1225783	173.1	290
3	1226886	173.3	300
3	1227979	173.5	310
3	1228808	173.7	320
3	1230905	174.083	330
3	1231083	174.1	340
3	1232441	174.3	350
3	1233552	174.5	360
3	1234387	174.7	370
3	1235620	174.9	380
3	1236915	175.1	390
3	1238012	175.3	400
3	1238764	175.5	410
3	1239510	175.7	420
3	1239991	175.9	430
3	1240467	176.1	440
3	1240904	176.3	450
3	1241343	176.5	450
3	1245144	179.585	450
3	1245349	179.773	450
3	1245568	179.955	450
3	1245840	180.137	450
3	1245840	180.137	460
3	1245840	180.137	470
3	1245840	180.137	480
3	1245840	180.137	490
3	1251090	182.836	500
3	1251090	182.836	510
3	1251090	182.836	520
3	1251090	182.836	530
3	1251090	182.836	540
3	1251090	182.836	550
3	1251090	182.836	560
3	1251090	182.836	570
3	1251090	182.836	580
3	1251090	182.836	590
3	1254729	183.019	600
3	1254729	183.019	610
3	1254729	183.019	620
3	1254729	183.019	630
3	1254729	183.019	640
3	1254729	183.019	650
3	1257827	183.202	660
3	1257827	183.202	670
3	1257827	183.202	680
3	1257827	183.202	690
3	1257827	183.202	700
3	1257827	183.202	710
3	1257827	183.202	720
3	1257827	183.202	730
3	1257827	183.202	740
3	1261458	183.383	750
3	1261458	183.383	760
3	1261458	183.383	770
3	1261458	183.383	780
3	1261458	183.383	790
3	1264050	183.572	800
3	1267064	183.757	810
3	1267064	183.757	820
3	1268944	183.9	830
3	1271994	184.1	840
3	1274193	184.3	850
3	1277969	184.5	860
3	1281330	184.7	870
3	1283301	184.9	880
3	1285576	185.1	890
3	1287528	185.3	900
3	1289432	185.5	900
3	1289444	185.5	910
3	1293150	185.883	920
3	1293351	185.9	930
3	1299977	186.1	940
3	1301439	186.3	950
3	1301926	186.5	960
3	1302404	186.7	970
3	1302899	186.9	980
3	1308576	193	480
3	1308576	193	490
3	1308576	193	500
3	1308576	193	510
3	1308576	193	520
3	1308576	193	530
3	1308576	193	540
3	1315650	193.232	550
3	1315650	193.232	560
3	1315650	193.232	570
3	1315650	193.232	580
3	1315650	193.232	590
3	1315650	193.232	600
3	1315650	193.232	610
3	1315650	193.232	620
3	1315650	193.232	630
3	1315650	193.232	640
3	1315650	193.232	650
3	1315650	193.232	660
3	1315650	193.232	670
3	1315650	193.232	680
3	1315650	193.232	690
3	1315650	193.232	700
3	1315650	193.232	710
3	1315650	193.232	720
3	1315650	193.232	730
3	1315650	193.232	740
3	1315650	193.232	750
3	1315650	193.232	760
3	1315650	193.232	770
3	1315650	193.232	780
3	1321662	193.3	790
3	1328906	193.5	800
3	1336310	193.7	810
3	1344192	193.9	820
3	1352178	194.1	830
3	1354914	194.3	840
3	1358248	194.5	840
3	1358259	194.5	850
3	1362865	194.7	860
3	1371234	194.9	870
3	1378142	195.1	880
3	1380859	195.3	890
3	1384346	195.5	900
3	1387165	195.7	910
3	1397608	196.13	920
3	1397608	196.13	930
3	1401574	196.3	940
3	1404335	196.5	950
3	1406082	196.7	960
3	1414017	196.9	970
3	1416894	197.1	980
3	1418174	197.3	990
3	1419936	197.5	1000
3	1421380	197.7	1010
15	1248435	181.302	450
15	1248814	181.661	450
15	1249335	182.014	450
15	1249785	182.368	450
15	1250304	182.726	460
15	1256466	183.083	470
15	1263108	183.439	480
15	1268215	183.803	490
15	1268215	183.803	500
15	1272925	184.159	510
15	1278484	184.516	520
15	1278484	184.516	530
15	1282930	184.869	540
15	1286755	185.222	550
15	1286755	185.222	560
15	1290267	185.575	570
15	1293827	185.93	580
15	1293827	185.93	590
15	1293827	185.93	600
15	1293827	185.93	610
15	1293827	185.93	620
15	1293827	185.93	630
15	1293827	185.93	640
15	1293827	185.93	650
15	1293827	185.93	660
15	1293827	185.93	670
15	1293827	185.93	680
15	1293827	185.93	690
15	1293827	185.93	700
15	1293827	185.93	710
15	1293827	185.93	720
15	1293827	185.93	730
15	1293827	185.93	740
15	1293827	185.93	750
15	1306008	190.1	750
15	1310479	193.094	250
15	1310479	193.094	260
15	1310479	193.094	270
15	1310479	193.094	280
15	1310479	193.094	290
15	1310479	193.094	300
15	1310479	193.094	310
15	1310479	193.094	320
15	1310479	193.094	330
15	1310479	193.094	340
15	1310479	193.094	350
15	1310479	193.094	360
15	1310479	193.094	370
15	1310479	193.094	380
15	1321266	193.285	390
15	1321266	193.285	400
15	1321266	193.285	410
15	1326821	193.483	420
15	1326821	193.483	430
15	1326821	193.483	440
15	1326821	193.483	450
15	1326821	193.483	460
15	1326821	193.483	470
15	1326821	193.483	480
15	1326821	193.483	490
15	1326821	193.483	500
15	1326821	193.483	510
15	1326821	193.483	520
15	1326821	193.483	530
15	1326821	193.483	540
15	1326821	193.483	550
15	1326821	193.483	560
15	1334300	193.675	570
15	1334300	193.675	580
15	1334300	193.675	590
15	1334300	193.675	600
15	1334300	193.675	610
15	1334300	193.675	620
15	1334300	193.675	630
15	1334300	193.675	640
15	1334300	193.675	650
15	1334300	193.675	660
15	1334300	193.675	670
15	1334300	193.675	680
15	1334300	193.675	690
15	1334300	193.675	700
15	1334300	193.675	710
15	1334300	193.675	720
15	1343197	193.866	730
15	1343197	193.866	740
15	1343197	193.866	750
15	1343197	193.866	760
15	1343197	193.866	770
15	1343197	193.866	780
15	1343197	193.866	790
15	1350823	194.061	800
15	1350823	194.061	810
15	1354297	194.255	820
15	1354297	194.255	830
15	1358028	194.493	840
15	1358260	194.5	850
15	1362866	194.7	860
15	1371235	194.9	870
15	1378143	195.1	880
15	1380860	195.3	890
15	1384347	195.5	900
15	1387166	195.7	910
15	1390637	195.9	920
15	1395787	196.1	930
15	1401575	196.3	940
15	1405906	196.692	950
15	1406083	196.7	960
15	1414018	196.9	970
15	1418614	197.303	980
15	1418614	197.303	990
15	1419937	197.5	1000
15	1421381	197.7	1010
15	1422817	197.9	1020
15	1424010	198.1	1030
15	1425109	198.3	1040
15	1426206	198.5	1050
15	1427295	198.7	1060
15	1428387	198.9	1070
15	1429209	199.1	1070
15	1432031	202.9	20
15	1432031	202.9	30
15	1432031	202.9	40
15	1432031	202.9	50
15	1440695	203.476	60
15	1443261	203.762	70
15	1443261	203.762	80
15	1443508	203.766	90
15	1443508	203.766	100
15	1443508	203.766	110
15	1443508	203.766	120
15	1443508	203.766	130
15	1443508	203.766	140
15	1443508	203.766	150
15	1443508	203.766	160
15	1443508	203.766	170
15	1453500	204.33	180
15	1453500	204.33	190
15	1453500	204.33	200
15	1453500	204.33	210
15	1453500	204.33	220
15	1453500	204.33	230
15	1453500	204.33	240
15	1453500	204.33	250
15	1453500	204.33	260
15	1453500	204.33	270
15	1453500	204.33	280
15	1457974	204.5	290
15	1460027	204.7	300
15	1461814	204.9	310
15	1463155	205.1	320
15	1464260	205.3	330
15	1466663	205.782	340
15	1466663	205.782	350
15	1467289	205.9	360
15	1468696	206.1	370
15	1469485	206.3	380
15	1470726	206.5	390
15	1471699	206.7	400
15	1472956	206.9	410
15	1474269	207.1	420
15	1475366	207.3	430
15	1476225	207.5	440
15	1477370	207.7	450
15	1478663	207.9	460
15	1479792	208.1	460
15	1479803	208.1	470
15	1480600	208.3	480
15	1481889	208.5	490
15	1483124	208.7	500
15	1484218	208.9	510
15	1485369	209.1	520
15	1486468	209.3	530
15	1488873	209.784	80
15	1488873	209.784	90
15	1491924	210.382	100
15	1491924	210.382	110
15	1493556	210.665	120
15	1493556	210.665	130
15	1493852	210.7	140
15	1496483	211.183	150
15	1496483	211.183	160
15	1497137	211.3	170
15	1498710	211.5	180
15	1499577	211.7	190
15	1500722	211.9	200
15	1502063	212.1	210
15	1503158	212.3	220
15	1504255	212.5	230
15	1505344	212.7	240
15	1506437	212.9	250
15	1507584	213.1	260
15	1508681	213.3	270
15	1509766	213.5	280
15	1510557	213.7	290
15	1511820	213.9	300
15	1512903	214.1	310
15	1514044	214.3	320
15	1515341	214.5	330
15	1516121	214.7	340
15	1517423	214.9	350
15	1518692	215.1	360
15	1521098	215.582	370
15	1521098	215.582	380
15	1521735	215.7	390
15	1523084	215.9	400
15	1524233	216.1	410
15	1525332	216.3	420
15	1527512	216.786	430
15	1527512	216.786	440
15	1528161	216.9	450
15	1529772	217.1	450
15	1529783	217.1	460
15	1530888	217.3	430
15	1531981	217.5	440
15	1533078	217.7	450
15	1534180	217.9	460
15	1535317	218.1	440
15	1536106	218.3	450
15	1537410	218.5	460
15	1538639	218.7	470
15	1539734	218.9	100
15	1540329	219.1	110
15	1541303	219.3	120
15	1544419	219.786	130
15	1544419	219.786	140
15	1545022	219.9	150
15	1546441	220.1	160
15	1547544	220.3	170
15	1548625	220.5	180
15	1549732	220.7	190
15	1550827	220.9	200
15	1551964	221.1	210
15	1552831	221.3	220
15	1553966	221.5	230
15	1555267	221.7	240
15	1556362	221.9	250
15	1557505	222.1	260
15	1558364	222.3	270
15	1559198	222.5	280
15	1560692	222.7	290
15	1561380	222.9	300
15	1561890	223.1	310
15	1563129	223.3	320
15	1566596	223.784	330
15	1566596	223.784	340
15	1568684	224.181	350
15	1568684	224.181	360
15	1569190	224.3	370
15	1570493	224.5	380
15	1573135	224.983	390
15	1573135	224.983	400
15	1573650	225.1	410
15	1575003	225.3	420
15	1576276	225.5	430
15	1577573	225.7	440
15	1578432	225.9	450
15	1579299	226.1	450
15	1579310	226.1	460
15	1580577	226.3	430
15	1581872	226.5	440
15	1583147	226.7	450
15	1584259	226.9	460
15	1585410	227.1	440
15	1586505	227.3	450
15	1587587	227.5	460
15	1588155	227.7	90
15	1589122	227.9	100
15	1590573	228.1	110
15	1592056	228.3	120
15	1593157	228.5	130
15	1594018	228.7	140
15	1596718	229.182	150
15	1596718	229.182	160
15	1597345	229.3	170
15	1598714	229.5	180
15	1599801	229.7	190
15	1600900	229.9	200
15	1602047	230.1	210
15	1603136	230.3	220
15	1604233	230.5	230
15	1605322	230.7	240
15	1606110	230.9	250
15	1607222	231.1	260
15	1608491	231.3	270
15	1609790	231.5	280
15	1610893	231.7	290
15	1611980	231.9	300
15	1613125	232.1	310
15	1614218	232.3	320
15	1615003	232.5	330
15	1616302	232.7	340
15	1617531	232.9	350
15	1618668	233.1	360
15	1621077	233.584	370
15	1621077	233.584	380
15	1621679	233.7	390
15	1623066	233.9	400
15	1624209	234.1	410
15	1626614	234.583	420
15	1626614	234.583	430
15	1627228	234.7	440
15	1628365	234.9	450
15	1629552	235.1	450
[...]
14	3969707	576	0.3
14	3971368	576.202	0.302
14	3973162	576.4	0.3
14	3975096	576.6	0.3
14	3976892	576.8	0.3
14	3978688	577	0.3
14	3980517	577.203	0.303
14	3982304	577.401	0.301
14	3984108	577.606	0.306
14	3985870	577.801	0.301
14	3987700	578.004	0.304
14	3989349	578.205	0.305
14	3990472	578.408	0.308
14	3991477	578.609	0.309
14	3993450	578.802	0.302
14	3996195	579.001	0.301
14	3998027	579.2	0.3
14	4000309	579.4	0.3
14	4002104	579.6	0.3
14	4003900	579.801	0.301
14	4005702	580	0.3
14	4007405	580.208	0.308
14	4008894	580.409	0.309
14	4010648	580.6	0.3
14	4012774	580.8	0.3
14	4014753	581	0.3
14	4016418	581.201	0.301
14	4017773	581.402	0.302
14	4019747	581.601	0.301
14	4021342	581.8	0.3
14	4023064	582.002	0.302
14	4025105	582.2	0.3
14	4027446	582.401	0.301
14	4029232	582.6	0.3
14	4030922	582.811	0.311
14	4032444	583.009	0.309
14	4034430	583.204	0.304
14	4036489	583.402	0.302
14	4038246	583.6	0.3
14	4039931	583.809	0.309
14	4041453	584.009	0.309
14	4042968	584.208	0.308
14	4044615	584.41	0.31
14	4046667	584.632	0.332
14	4048331	584.866	0.366
14	4050394	585	0.3
14	4052179	585.2	0.3
14	4054025	585.402	0.302
14	4056273	585.601	0.301
14	4057949	585.804	0.304
14	4059443	586.002	0.302
14	4060587	586.2	0.3
14	4063268	586.4	0.3
14	4065438	586.6	0.3
14	4067271	586.801	0.301
14	4069114	587.001	0.301
14	4070677	587.201	0.301
14	4072638	587.4	0.3
14	4074355	587.61	0.31
14	4075833	587.81	0.31
14	4077610	588	0.3
14	4079244	588.201	0.301
14	4081162	588.402	0.302
14	4082872	588.6	0.3
14	4084893	588.807	0.307
14	4086405	589	0.3
14	4088821	589.203	0.303
14	4090494	589.402	0.302
14	4091964	589.6	0.3
14	4094025	589.801	0.301
14	4096231	590.001	0.301
14	4098036	590.2	0.3
14	4099818	590.4	0.3
14	4101631	590.604	0.304
14	4103189	590.801	0.301
14	4105205	591.004	0.304
14	4106835	591.201	0.301
14	4108014	591.4	0.3
14	4109792	591.602	0.302
14	4111719	591.8	0.3
14	4113586	592.002	0.302
14	4115347	592.2	0.3
14	4117258	592.401	0.301
14	4118766	592.601	0.301
14	4120752	592.801	0.301
14	4122721	593.004	0.304
14	4124865	593.2	0.3
14	4126701	593.406	0.306
14	4128570	593.601	0.301
14	4130499	593.8	0.3
14	4132755	594.002	0.302
14	4134535	594.201	0.301
14	4136339	594.405	0.305
14	4138101	594.6	0.3
14	4139879	594.8	0.3
14	4141723	595.001	0.301
14	4143506	595.201	0.301
14	4145276	595.4	0.3
14	4147068	595.6	0.3
14	4148871	595.801	0.301
14	4150661	596	0.3
14	4152326	596.202	0.302
14	4153964	596.4	0.3
14	4155615	596.602	0.302
14	4157003	596.8	0.3
14	4158911	597.003	0.303
14	4160986	597.2	0.3
14	4163317	597.4	0.3
14	4165106	597.6	0.3
14	4166888	597.8	0.3
14	4168741	598.001	0.301
14	4170382	598.2	0.3
14	4171864	598.4	0.3
14	4173597	598.603	0.303
14	4175418	598.801	0.301
14	4177789	599.003	0.303
14	4179448	599.2	0.3
14	4180931	599.401	0.301
14	4182820	599.601	0.301
14	4184986	599.802	0.302
14	4186768	600	0.3
14	4188436	600.201	0.301
14	4190220	600.4	0.3
14	4192022	600.6	0.3
14	4193510	600.8	0.3
14	4195315	601.031	0.331
14	4196743	601.23	0.33
14	4198137	601.401	0.301
14	4200315	601.633	0.333
14	4201602	601.809	0.309
14	4203851	602	0.3
14	4206702	602.205	0.305
14	4208329	602.4	0.3
14	4209757	602.712	0.412
14	4210830	602.912	0.412
14	4211698	603.001	0.301
14	4214518	603.202	0.302
14	4216734	603.4	0.3
14	4218953	603.6	0.3
14	4221131	603.803	0.303
14	4222920	604	0.3
14	4224749	604.204	0.304
14	4226402	604.409	0.309
14	4227897	604.612	0.312
14	4229772	604.8	0.3
14	4231792	605.001	0.301
14	4233280	605.202	0.302
14	4235569	605.402	0.302
14	4237335	605.6	0.3
14	4239120	605.8	0.3
14	4240966	606.001	0.301
14	4242671	606.219	0.319
14	4244120	606.409	0.309
14	4246017	606.6	0.3
14	4248139	606.8	0.3
14	4249992	607.002	0.302
14	4251548	607.2	0.3
14	4253517	607.4	0.3
14	4255347	607.6	0.3
14	4257139	607.8	0.3
14	4259000	608.001	0.301
14	4260616	608.208	0.308
14	4262539	608.4	0.3
14	4264169	608.636	0.336
14	4265219	608.861	0.361
14	4266710	609.06	0.36
14	4268268	609.227	0.327
14	4270390	609.402	0.302
14	4272864	609.608	0.308
14	4274741	609.81	0.31
14	4276401	610.003	0.303
14	4278616	610.202	0.302
14	4280628	610.405	0.305
14	4282397	610.6	0.3
14	4284175	610.801	0.301
14	4285716	611.003	0.303
14	4287840	611.2	0.3
14	4289316	611.4	0.3
14	4291233	611.606	0.306
14	4293221	611.8	0.3
14	4294752	612.001	0.301
14	4296429	612.2	0.3
14	4298761	612.4	0.3
14	4300410	612.6	0.3
14	4301893	612.8	0.3
14	4304203	613	0.3
14	4306006	613.2	0.3
14	4307518	613.43	0.33
14	4308641	613.63	0.33
14	4309776	613.833	0.333
14	4310806	614.061	0.361
14	4311355	614.26	0.36
14	4322382	617.258	1.758
14	4322465	617.259	2.559
14	4322468	617.259	2.359
14	4322544	617.26	2.76
14	4322562	617.26	1.16
14	4322656	617.261	2.961
14	4322672	617.261	2.161
14	4322676	617.261	1.961
14	4322684	617.261	1.561
14	4322688	617.261	1.361
14	4322694	617.261	0.961
14	4322710	617.261	3.161
14	4322816	617.263	0.363
14	4322857	617.266	0.566
14	4322876	617.269	0.769
14	4329365	617.474	0.374
14	4331498	617.623	0.323
14	4333065	617.864	0.364
14	4334144	618.008	0.308
14	4335262	618.211	0.311
14	4336340	618.408	0.308
14	4337463	618.611	0.311
14	4338552	618.809	0.309
14	4339372	619.061	0.361
14	4340142	619.262	0.362
14	4341105	619.461	0.361
14	4341850	619.66	0.36
14	4342595	619.86	0.36
14	4343424	620.061	0.361
14	4347459	621.999	1.499
14	4347460	621.999	1.299
14	4347549	622	1.7
14	4347628	622.001	2.101
14	4347640	622.001	0.901
14	4347663	622.003	0.703
14	4347664	622.003	0.503
14	4347672	622.005	1.905
14	4348088	622.06	0.36
14	4348446	622.161	1.261
14	4348610	622.262	0.362
14	4349100	622.46	0.36
14	4349600	622.66	0.36
14	4350325	622.862	0.362
14	4353623	623.06	0.36
14	4357041	623.26	0.36
14	4359596	623.461	0.361
14	4361267	623.667	0.367
14	4363609	623.912	0.412
14	4364963	624.061	0.361
14	4366587	624.262	0.362
14	4371972	624.541	0.441
14	4373495	624.687	0.387
14	4374534	624.748	0.248
14	4376650	624.944	0.244
14	4378601	625.144	0.244
14	4382227	625.346	0.246
14	4386331	625.545	0.245
14	4388203	625.743	0.243
14	4390998	625.943	0.243
14	4393473	626.142	0.242
14	4395091	626.344	0.244
14	4397261	626.549	0.249
14	4399732	626.742	0.242
14	4404428	626.943	0.243
14	4407458	627.146	0.246
14	4409682	627.343	0.243
14	4413028	627.542	0.242
14	4416165	627.742	0.242
14	4418240	627.943	0.243
14	4420071	628.142	0.242
14	4421751	628.345	0.245
14	4423518	628.544	0.244
14	4425465	628.745	0.245
14	4427229	628.943	0.243
14	4428787	629.145	0.245
14	4430839	629.48	0.38
14	4432389	629.585	0.285
14	4434170	629.742	0.242
14	4435910	629.943	0.243
14	4437902	630.142	0.242
14	4439444	630.342	0.242
14	4440883	630.552	0.252
14	4443462	630.742	0.242
14	4445325	630.943	0.243
14	4447045	631.145	0.245
14	4448833	631.344	0.244
14	4450436	631.542	0.242
14	4451631	631.742	0.242
14	4454082	631.942	0.242
14	4456068	632.142	0.242
14	4457786	632.343	0.243
14	4459636	632.543	0.243
14	4461377	632.743	0.243
14	4463336	632.943	0.243
14	4465245	633.146	0.246
14	4466756	633.345	0.245
14	4467994	633.543	0.243
14	4470105	633.742	0.242
14	4472010	633.946	0.246
14	4474170	634.144	0.244
14	4476110	634.342	0.242
14	4477892	634.542	0.242
14	4479676	634.743	0.243
14	4481479	634.942	0.242
14	4483200	635.145	0.245
14	4484532	635.346	0.246
14	4486626	635.545	0.245
14	4488576	635.742	0.242
14	4490396	635.947	0.247
14	4492192	636.142	0.242
14	4493823	636.342	0.242
14	4495724	636.668	0.368
14	4496813	636.743	0.243
14	4498543	636.944	0.244
14	4501299	637.145	0.245
14	4503192	637.342	0.242
14	4504958	637.542	0.242
14	4506664	637.749	0.249
14	4508456	637.945	0.245
14	4510372	638.142	0.242
14	4512166	638.342	0.242
14	4513958	638.542	0.242
14	4515442	638.742	0.242
14	4516609	638.942	0.242
14	4519080	639.144	0.244
14	4521188	639.343	0.243
14	4522961	639.542	0.242
14	4524751	639.742	0.242
14	4526524	639.942	0.242
14	4528223	640.143	0.243
14	4529707	640.343	0.243
14	4532007	640.546	0.246
14	4533968	640.86	0.36
14	4535222	640.942	0.242
14	4537429	641.143	0.243
14	4539212	641.342	0.242
14	4541012	641.543	0.243
14	4542801	641.744	0.244
14	4544562	641.942	0.242
14	4546117	642.144	0.244
14	4547288	642.342	0.242
14	4549451	642.542	0.242
14	4551380	642.744	0.244
14	4553651	642.943	0.243
14	4555490	643.144	0.244
14	4557262	643.342	0.242
14	4559071	643.546	0.246
14	4560869	643.747	0.247
14	4562645	643.942	0.242
14	4564510	644.146	0.246
14	4566277	644.345	0.245
14	4567804	644.547	0.247
14	4569116	644.743	0.243
14	4571146	644.943	0.243
14	4573348	645.142	0.242
14	4575081	645.342	0.242
14	4577121	645.544	0.244
14	4578887	645.861	0.361
14	4579751	645.942	0.242
14	4582000	646.142	0.242
14	4584212	646.342	0.242
14	4585790	646.542	0.242
14	4587521	646.745	0.245
14	4589754	646.947	0.247
14	4591453	647.144	0.244
14	4593165	647.342	0.242
14	4595180	647.542	0.242
14	4596841	647.744	0.244
14	4598548	647.943	0.243
14	4600605	648.144	0.244
14	4602230	648.342	0.242
14	4603958	648.546	0.246
14	4606000	648.745	0.245
14	4607597	648.943	0.243
14	4609377	649.146	0.246
14	4611256	649.343	0.243
14	4612733	649.544	0.244
14	4614833	649.746	0.246
14	4616573	649.942	0.242
14	4618515	650.146	0.246
14	4620331	650.345	0.245
14	4622207	650.542	0.242
14	4623991	650.742	0.242
14	4625648	650.942	0.242
14	4627169	651.142	0.242
14	4629314	651.342	0.242
14	4630891	651.545	0.245
14	4632672	651.744	0.244
14	4634380	651.942	0.242
14	4636708	652.142	0.242
14	4638497	652.343	0.243
14	4640279	652.543	0.243
14	4642068	652.744	0.244
14	4643713	652.942	0.242
14	4645503	653.142	0.242
14	4647371	653.347	0.247
14	4648925	653.542	0.242
14	4650609	653.745	0.245
14	4651977	653.946	0.246
14	4653779	654.151	0.251
14	4656025	654.347	0.247
14	4658258	654.542	0.242
14	4660174	654.743	0.243
14	4661830	654.944	0.244
14	4663218	655.145	0.245
14	4665419	655.343	0.243
14	4667262	655.545	0.245
14	4668930	655.745	0.245
14	4670603	655.945	0.245
14	4672107	656.143	0.243
14	4674214	656.342	0.242
14	4676005	656.546	0.246
14	4678055	656.745	0.245
14	4679593	656.945	0.245
14	4681729	657.146	0.246
14	4683564	657.345	0.245
14	4685452	657.542	0.242
14	4687249	657.742	0.242
14	4689027	657.942	0.242
14	4690864	658.142	0.242
14	4692655	658.344	0.244
14	4694438	658.542	0.242
14	4696079	658.744	0.244
14	4697661	658.946	0.246
14	4699444	659.145	0.245
14	4701761	659.469	0.369
14	4703030	659.542	0.242
14	4705364	659.744	0.244
14	4707154	659.945	0.245
14	4708967	660.142	0.242
14	4710628	660.342	0.242
14	4712119	660.545	0.245
14	4714331	660.746	0.246
14	4716132	660.942	0.242
14	4717815	661.142	0.242
14	4719305	661.344	0.244
14	4721598	661.543	0.243
14	4723369	661.742	0.242
14	4725159	661.943	0.243
14	4727019	662.143	0.243
14	4728795	662.344	0.244
14	4730596	662.545	0.245
14	4732260	662.747	0.247
14	4733879	662.942	0.242
14	4735397	663.143	0.243
14	4737193	663.346	0.246
14	4739489	663.542	0.242
14	4741275	663.742	0.242
14	4742733	663.944	0.244
14	4744138	664.145	0.245
14	4746404	664.343	0.243
14	4748443	664.542	0.242
14	4750466	664.742	0.242
14	4752261	664.944	0.244
14	4754096	665.144	0.244
14	4755864	665.343	0.243
14	4757670	665.544	0.244
14	4759439	665.742	0.242
14	4761214	665.942	0.242
14	4763041	666.142	0.242
14	4764835	666.342	0.242
14	4766631	666.542	0.242
14	4768409	666.742	0.242
14	4770196	666.943	0.243
14	4771729	667.142	0.242
14	4772993	667.343	0.243
14	4775333	667.542	0.242
14	4777433	667.742	0.242
14	4779112	667.945	0.245
14	4780926	668.142	0.242
14	4782757	668.345	0.245
14	4784529	668.542	0.242
14	4786308	668.744	0.244
14	4787792	668.943	0.243
14	4789601	669.142	0.242
14	4791637	669.345	0.245
14	4793692	669.542	0.242
14	4795361	669.746	0.246
14	4796888	669.942	0.242
14	4798507	670.145	0.245
14	4799979	670.348	0.248
14	4802308	670.542	0.242
14	4804558	670.742	0.242
14	4806086	670.945	0.245
14	4807592	671.158	0.258
14	4809723	671.342	0.242
14	4811668	671.542	0.242
14	4813157	671.745	0.245
14	4815223	671.945	0.245
14	4816861	672.142	0.242
14	4818591	672.346	0.246
14	4820618	672.546	0.246
14	4822496	672.744	0.244
14	4824437	672.946	0.246
14	4825945	673.142	0.242
14	4826823	673.343	0.243
14	4829146	673.544	0.244
14	4831640	673.742	0.242
14	4833452	673.942	0.242
14	4834998	674.143	0.243
14	4836162	674.342	0.242
14	4838616	674.542	0.242
14	4840536	674.742	0.242
14	4842022	674.942	0.242
14	4843524	675.142	0.242
14	4845974	675.345	0.245
14	4847718	675.548	0.248
14	4849610	675.746	0.246
14	4851230	675.943	0.243
14	4852904	676.145	0.245
14	4855026	676.342	0.242
14	4856369	676.543	0.243
14	4858379	676.744	0.244
14	4860138	676.944	0.244
14	4862430	677.146	0.246
14	4864231	677.343	0.243
14	4866011	677.543	0.243
14	4867678	677.745	0.245
14	4869290	677.949	0.249
14	4871291	678.142	0.242
14	4873247	678.344	0.244
14	4874893	678.545	0.245
14	4876681	678.743	0.243
14	4878602	678.942	0.242
14	4880445	679.143	0.243
14	4882223	679.343	0.243
14	4884005	679.542	0.242
14	4885810	679.743	0.243
14	4887603	679.943	0.243
14	4889490	680.149	0.249
14	4891078	680.342	0.242
14	4892401	680.542	0.242
14	4894505	680.743	0.243
14	4896620	680.943	0.243
14	4898310	681.143	0.243
14	4900011	681.342	0.242
14	4901979	681.542	0.242
14	4903811	681.743	0.243
14	4905444	681.943	0.243
14	4906973	682.144	0.244
14	4909193	682.342	0.242
14	4911018	682.543	0.243
14	4912809	682.743	0.243
14	4914436	682.942	0.242
14	4915804	683.142	0.242
14	4917896	683.342	0.242
14	4919589	683.543	0.243
14	4921858	683.743	0.243
14	4923639	683.942	0.242
14	4925477	684.142	0.242
14	4927146	684.346	0.246
14	4928834	684.547	0.247
14	4930719	684.743	0.243
14	4932505	684.942	0.242
14	4934041	685.145	0.245
14	4936244	685.345	0.245
14	4937918	685.546	0.246
14	4939644	685.744	0.244
14	4941657	685.942	0.242
14	4943401	686.148	0.248
14	4945149	686.342	0.242
14	4946940	686.543	0.243
14	4948663	686.745	0.245
14	4950671	686.942	0.242
14	4952365	687.144	0.244
14	4953846	687.342	0.242
14	4956152	687.546	0.246
14	4957628	687.744	0.244
14	4959584	688.019	0.319
14	4961232	688.142	0.242
14	4962790	688.345	0.245
14	4965084	688.546	0.246
14	4967003	688.745	0.245
14	4968783	688.942	0.242
14	4970514	689.146	0.246
14	4972014	689.346	0.246
14	4974777	689.712	0.412
14	4975466	689.742	0.242
14	4977849	689.944	0.244
14	4979431	690.148	0.248
14	4980871	690.342	0.242
14	4983069	690.544	0.244
14	4984695	690.743	0.243
14	4986655	690.943	0.243
14	4988663	691.143	0.243
14	4990333	691.343	0.243
14	4991685	691.544	0.244
14	4993050	691.744	0.244
14	4994905	691.943	0.243
14	4997464	692.15	0.25
14	4999147	692.347	0.247
14	5001196	692.544	0.244
14	5003142	692.768	0.268
14	5004975	692.943	0.243
14	5006808	693.143	0.243
14	5008478	693.346	0.246
14	5009953	693.542	0.242
14	5011345	693.743	0.243
14	5013488	693.942	0.242
14	5015861	694.143	0.243
14	5017494	694.344	0.244
14	5019228	694.544	0.244
14	5021257	694.744	0.244
14	5022779	694.945	0.245
14	5024296	695.143	0.243
14	5026057	695.343	0.243
14	5027435	695.542	0.242
14	5030065	695.744	0.244
14	5032139	695.946	0.246
14	5033972	696.143	0.243
14	5035747	696.343	0.243
14	5037412	696.545	0.245
14	5039216	696.744	0.244
14	5041121	696.944	0.244
14	5042948	697.143	0.243
14	5044715	697.342	0.242
14	5046382	697.545	0.245
14	5047862	697.744	0.244
14	5050003	697.943	0.243
14	5052011	698.261	0.361
14	5053199	698.342	0.242
14	5055088	698.542	0.242
14	5056538	698.744	0.244
14	5057828	698.943	0.243
14	5058901	699.153	0.253
14	5060681	699.343	0.243
14	5062216	699.542	0.242
14	5063469	699.745	0.245
14	5064813	699.942	0.242
14	5066742	700.145	0.245
14	5068083	700.343	0.243
14	5069207	700.542	0.242
14	5071076	700.743	0.243
14	5072545	700.943	0.243
14	5074037	701.142	0.242
14	5075501	701.346	0.246
14	5076912	701.542	0.242
14	5078069	701.744	0.244
14	5078876	701.942	0.242
14	5080260	702.143	0.243
14	5082053	702.348	0.248
14	5083332	702.545	0.245
14	5084999	702.746	0.246
14	5086396	702.942	0.242
14	5087959	703.143	0.243
14	5088792	703.343	0.243
14	5089565	703.542	0.242
14	5090215	703.743	0.243
14	5090676	703.943	0.243
14	5092901	704.142	0.242
14	5094580	704.342	0.242
14	5095975	704.543	0.243
14	5097064	704.744	0.244
14	5098007	704.943	0.243
14	5098831	705.142	0.242
14	5100286	705.346	0.246
14	5101056	705.542	0.242
14	5102589	705.745	0.245
14	5103722	705.943	0.243
14	5104867	706.144	0.244
14	5105946	706.342	0.242
14	5107045	706.542	0.242
14	5108156	706.747	0.247
14	5109088	706.942	0.242
14	5109928	707.142	0.242
14	5111509	707.344	0.244
14	5112607	707.543	0.243
14	5113700	707.744	0.244
14	5114637	707.942	0.242
14	5115480	708.146	0.246
14	5117061	708.343	0.243
14	5118152	708.542	0.242
14	5119241	708.743	0.243
14	5120334	708.942	0.242
14	5121342	709.144	0.244
14	5122128	709.344	0.244
14	5123485	709.545	0.245
14	5124324	709.745	0.245
14	5125909	709.943	0.243
14	5127052	710.146	0.246
14	5128132	710.344	0.244
14	5129239	710.543	0.243
14	5130318	710.742	0.242
14	5131422	710.943	0.243
14	5132565	711.143	0.243
14	5133656	711.343	0.243
14	5134758	711.544	0.244
14	5135835	711.742	0.242
14	5136936	711.942	0.242
14	5138091	712.143	0.243
14	5139185	712.344	0.244
14	5140281	712.543	0.243
14	5141370	712.742	0.242
14	5142478	712.944	0.244
14	5143613	713.142	0.242
14	5144940	713.46	0.36
14	5145693	713.544	0.244
14	5146761	713.742	0.242
14	5147750	714.071	0.371
14	5148242	714.143	0.243
14	5150269	714.342	0.242
14	5151370	714.542	0.242
14	5152470	714.743	0.243
14	5153571	714.943	0.243
14	5154412	715.142	0.242
14	5154883	715.343	0.243
14	5156636	715.542	0.242
14	5158014	715.743	0.243
14	5159125	715.943	0.243
14	5160118	716.143	0.243
14	5160902	716.342	0.242
14	5161994	716.548	0.248
14	5163824	716.861	0.361
14	5164996	717.062	0.362
14	5165739	717.144	0.244
14	5167197	717.461	0.361
14	5167904	717.542	0.242
14	5168999	717.742	0.242
14	5169793	717.942	0.242
14	5170935	718.146	0.246
14	5172245	718.343	0.243
14	5173633	718.543	0.243
14	5174957	718.861	0.361
14	5175542	718.943	0.243
14	5176511	719.144	0.244
14	5177929	719.342	0.242
14	5178712	719.542	0.242
14	5180310	719.743	0.243
14	5181396	719.943	0.243
14	5182535	720.142	0.242
14	5183629	720.342	0.242
14	5184586	720.545	0.245
14	5185502	720.756	0.256
14	5186479	720.942	0.242
14	5187924	721.143	0.243
14	5188799	721.351	0.251
14	5190280	721.545	0.245
14	5191267	721.742	0.242
14	5192055	721.942	0.242
14	5193691	722.143	0.243
14	5194809	722.349	0.249
14	5196120	722.661	0.361
14	5196877	722.746	0.246
14	5198084	722.944	0.244
14	5199221	723.143	0.243
14	5200173	723.342	0.242
14	5200971	723.547	0.247
14	5202394	723.744	0.244
14	5203616	723.942	0.242
14	5204756	724.142	0.242
14	5205854	724.342	0.242
14	5206947	724.542	0.242
14	5208050	724.743	0.243
14	5209133	724.942	0.242
14	5210285	725.142	0.242
14	5211616	725.461	0.361
14	5212356	725.543	0.243
14	5213589	725.743	0.243
14	5214680	725.944	0.244
14	5215827	726.146	0.246
14	5216916	726.344	0.244
14	5218008	726.542	0.242
14	5219097	726.742	0.242
14	5220047	726.942	0.242
14	5220881	727.142	0.242
14	5222469	727.344	0.244
14	5223544	727.542	0.242
14	5224653	727.743	0.243
14	5225438	727.942	0.242
14	5225921	728.142	0.242
14	5226349	728.343	0.243
14	5226776	728.542	0.242
14	5227213	728.742	0.242
14	5227648	728.942	0.242
14	5230815	731.393	2.493
14	5230851	731.394	1.894
14	5230870	731.395	2.295
14	5230873	731.395	2.095
14	5235188	733.142	3.442
14	5235209	733.142	2.642
14	5235224	733.142	1.842
14	5235230	733.142	1.642
14	5235238	733.142	1.442
14	5235247	733.142	1.042
14	5235253	733.142	0.842
14	5235346	733.143	3.243
14	5235350	733.143	2.843
14	5235353	733.143	2.443
14	5235356	733.143	2.243
14	5235371	733.143	1.243
14	5235375	733.143	0.643
14	5235378	733.143	0.443
14	5235453	733.146	0.246
14	5235464	733.147	2.047
14	5235473	733.148	3.048
42	5402497	916.5	0
42	5411087	925.5	0
42	5418228	934.5	0
42	5425450	943.5	0
42	5432660	952.5	0
42	5439862	961.5	0
42	5447080	970.5	0
42	5454280	979.5	0
42	5461486	988.5	0
42	5468704	997.5	0
42	5475916	1006.5	0
42	5483112	1015.5	0
43	5402498	916.5	0
43	5411088	925.5	0
43	5418229	934.5	0
43	5425451	943.5	0
43	5432661	952.5	0
43	5439863	961.5	0
43	5447081	970.5	0
43	5454281	979.5	0
43	5461487	988.5	0
43	5468705	997.5	0
43	5475917	1006.5	0
43	5483113	1015.5	0
44	5402499	916.5	0
44	5411089	925.5	0
44	5418230	934.5	0
44	5425452	943.5	0
44	5432662	952.5	0
44	5439864	961.5	0
44	5447082	970.5	0
44	5454282	979.5	0
44	5461488	988.5	0
44	5468706	997.5	0
44	5475918	1006.5	0
44	5483114	1015.5	0

